
---------- Begin Simulation Statistics ----------
final_tick                               129496349200                       # Number of ticks from beginning of simulation (restored from checkpoints and never reset)
host_inst_rate                                 286095                       # Simulator instruction rate (inst/s)
host_mem_usage                                4407896                       # Number of bytes of host memory used
host_op_rate                                   626685                       # Simulator op (including micro ops) rate (op/s)
host_seconds                                  1856.72                       # Real time elapsed on the host
host_tick_rate                               69744736                       # Simulator tick rate (ticks/s)
sim_freq                                 1000000000000                       # Frequency of simulated ticks
sim_insts                                   531197648                       # Number of instructions simulated
sim_ops                                    1163576925                       # Number of ops (including micro ops) simulated
sim_seconds                                  0.129496                       # Number of seconds simulated
sim_ticks                                129496349200                       # Number of ticks simulated
system.cpu.branchPred.BTBCorrect                    0                       # Number of correct BTB predictions (this stat may not work properly.
system.cpu.branchPred.BTBHitPct              0.000000                       # BTB Hit Percentage
system.cpu.branchPred.BTBHits                       0                       # Number of BTB hits
system.cpu.branchPred.BTBLookups            106187943                       # Number of BTB lookups
system.cpu.branchPred.RASInCorrect                  7                       # Number of incorrect RAS predictions.
system.cpu.branchPred.condIncorrect            141834                       # Number of conditional branches incorrect
system.cpu.branchPred.condPredicted         209179764                       # Number of conditional branches predicted
system.cpu.branchPred.indirectHits          104639913                       # Number of indirect target hits.
system.cpu.branchPred.indirectLookups       106187943                       # Number of indirect predictor lookups.
system.cpu.branchPred.indirectMisses          1548030                       # Number of indirect misses.
system.cpu.branchPred.lookups               209743832                       # Number of BP lookups
system.cpu.branchPred.usedRAS                  272652                       # Number of times the RAS was used to get a target.
system.cpu.branchPredindirectMispredicted        72494                       # Number of mispredicted indirect branches.
system.cpu.cc_regfile_reads                1047929867                       # number of cc regfile reads
system.cpu.cc_regfile_writes                629628579                       # number of cc regfile writes
system.cpu.commit.amos                              0                       # Number of atomic instructions committed
system.cpu.commit.branchMispredicts            141931                       # The number of times a branch was mispredicted
system.cpu.commit.branches                  209065683                       # Number of branches committed
system.cpu.commit.bw_lim_events             212194004                       # number cycles where commit BW limit reached
system.cpu.commit.commitNonSpecStalls             799                       # The number of times commit has been forced to stall to communicate backwards
system.cpu.commit.commitSquashedInsts         3134783                       # The number of squashed insts skipped by commit
system.cpu.commit.committedInsts            531197648                       # Number of instructions committed
system.cpu.commit.committedOps             1163576925                       # Number of ops (including micro ops) committed
system.cpu.commit.committed_per_cycle::samples    322707116                       # Number of insts commited each cycle
system.cpu.commit.committed_per_cycle::mean     3.605675                       # Number of insts commited each cycle
system.cpu.commit.committed_per_cycle::stdev     0.645561                       # Number of insts commited each cycle
system.cpu.commit.committed_per_cycle::underflows            0      0.00%      0.00% # Number of insts commited each cycle
system.cpu.commit.committed_per_cycle::0      3083696      0.96%      0.96% # Number of insts commited each cycle
system.cpu.commit.committed_per_cycle::1      2717953      0.84%      1.80% # Number of insts commited each cycle
system.cpu.commit.committed_per_cycle::2      2051433      0.64%      2.43% # Number of insts commited each cycle
system.cpu.commit.committed_per_cycle::3    102660030     31.81%     34.25% # Number of insts commited each cycle
system.cpu.commit.committed_per_cycle::4    212194004     65.75%    100.00% # Number of insts commited each cycle
system.cpu.commit.committed_per_cycle::overflows            0      0.00%    100.00% # Number of insts commited each cycle
system.cpu.commit.committed_per_cycle::min_value            0                       # Number of insts commited each cycle
system.cpu.commit.committed_per_cycle::max_value            4                       # Number of insts commited each cycle
system.cpu.commit.committed_per_cycle::total    322707116                       # Number of insts commited each cycle
system.cpu.commit.fp_insts                    1073336                       # Number of committed floating point instructions.
system.cpu.commit.function_calls               262317                       # Number of function calls committed.
system.cpu.commit.int_insts                1162675286                       # Number of committed integer instructions.
system.cpu.commit.loads                     106577498                       # Number of loads committed
system.cpu.commit.membars                           1                       # Number of memory barriers committed
system.cpu.commit.op_class_0::No_OpClass       128875      0.01%      0.01% # Class of committed instruction
system.cpu.commit.op_class_0::IntAlu       1053652273     90.55%     90.56% # Class of committed instruction
system.cpu.commit.op_class_0::IntMult          161160      0.01%     90.58% # Class of committed instruction
system.cpu.commit.op_class_0::IntDiv            38058      0.00%     90.58% # Class of committed instruction
system.cpu.commit.op_class_0::FloatAdd          38971      0.00%     90.58% # Class of committed instruction
system.cpu.commit.op_class_0::FloatCmp              0      0.00%     90.58% # Class of committed instruction
system.cpu.commit.op_class_0::FloatCvt           1280      0.00%     90.58% # Class of committed instruction
system.cpu.commit.op_class_0::FloatMult             0      0.00%     90.58% # Class of committed instruction
system.cpu.commit.op_class_0::FloatMultAcc            0      0.00%     90.58% # Class of committed instruction
system.cpu.commit.op_class_0::FloatDiv              0      0.00%     90.58% # Class of committed instruction
system.cpu.commit.op_class_0::FloatMisc             0      0.00%     90.58% # Class of committed instruction
system.cpu.commit.op_class_0::FloatSqrt             0      0.00%     90.58% # Class of committed instruction
system.cpu.commit.op_class_0::SimdAdd            6268      0.00%     90.59% # Class of committed instruction
system.cpu.commit.op_class_0::SimdAddAcc            0      0.00%     90.59% # Class of committed instruction
system.cpu.commit.op_class_0::SimdAlu          227266      0.02%     90.60% # Class of committed instruction
system.cpu.commit.op_class_0::SimdCmp               0      0.00%     90.60% # Class of committed instruction
system.cpu.commit.op_class_0::SimdCvt          174238      0.01%     90.62% # Class of committed instruction
system.cpu.commit.op_class_0::SimdMisc         348631      0.03%     90.65% # Class of committed instruction
system.cpu.commit.op_class_0::SimdMult              0      0.00%     90.65% # Class of committed instruction
system.cpu.commit.op_class_0::SimdMultAcc            0      0.00%     90.65% # Class of committed instruction
system.cpu.commit.op_class_0::SimdShift          1144      0.00%     90.65% # Class of committed instruction
system.cpu.commit.op_class_0::SimdShiftAcc            0      0.00%     90.65% # Class of committed instruction
system.cpu.commit.op_class_0::SimdDiv               0      0.00%     90.65% # Class of committed instruction
system.cpu.commit.op_class_0::SimdSqrt              0      0.00%     90.65% # Class of committed instruction
system.cpu.commit.op_class_0::SimdFloatAdd            0      0.00%     90.65% # Class of committed instruction
system.cpu.commit.op_class_0::SimdFloatAlu            0      0.00%     90.65% # Class of committed instruction
system.cpu.commit.op_class_0::SimdFloatCmp            0      0.00%     90.65% # Class of committed instruction
system.cpu.commit.op_class_0::SimdFloatCvt            0      0.00%     90.65% # Class of committed instruction
system.cpu.commit.op_class_0::SimdFloatDiv            0      0.00%     90.65% # Class of committed instruction
system.cpu.commit.op_class_0::SimdFloatMisc            0      0.00%     90.65% # Class of committed instruction
system.cpu.commit.op_class_0::SimdFloatMult            0      0.00%     90.65% # Class of committed instruction
system.cpu.commit.op_class_0::SimdFloatMultAcc            0      0.00%     90.65% # Class of committed instruction
system.cpu.commit.op_class_0::SimdFloatSqrt            0      0.00%     90.65% # Class of committed instruction
system.cpu.commit.op_class_0::SimdReduceAdd            0      0.00%     90.65% # Class of committed instruction
system.cpu.commit.op_class_0::SimdReduceAlu            0      0.00%     90.65% # Class of committed instruction
system.cpu.commit.op_class_0::SimdReduceCmp            0      0.00%     90.65% # Class of committed instruction
system.cpu.commit.op_class_0::SimdFloatReduceAdd            0      0.00%     90.65% # Class of committed instruction
system.cpu.commit.op_class_0::SimdFloatReduceCmp            0      0.00%     90.65% # Class of committed instruction
system.cpu.commit.op_class_0::SimdAes               0      0.00%     90.65% # Class of committed instruction
system.cpu.commit.op_class_0::SimdAesMix            0      0.00%     90.65% # Class of committed instruction
system.cpu.commit.op_class_0::SimdSha1Hash            0      0.00%     90.65% # Class of committed instruction
system.cpu.commit.op_class_0::SimdSha1Hash2            0      0.00%     90.65% # Class of committed instruction
system.cpu.commit.op_class_0::SimdSha256Hash            0      0.00%     90.65% # Class of committed instruction
system.cpu.commit.op_class_0::SimdSha256Hash2            0      0.00%     90.65% # Class of committed instruction
system.cpu.commit.op_class_0::SimdShaSigma2            0      0.00%     90.65% # Class of committed instruction
system.cpu.commit.op_class_0::SimdShaSigma3            0      0.00%     90.65% # Class of committed instruction
system.cpu.commit.op_class_0::SimdPredAlu            0      0.00%     90.65% # Class of committed instruction
system.cpu.commit.op_class_0::MemRead       106450084      9.15%     99.80% # Class of committed instruction
system.cpu.commit.op_class_0::MemWrite        2181966      0.19%     99.99% # Class of committed instruction
system.cpu.commit.op_class_0::FloatMemRead       127414      0.01%    100.00% # Class of committed instruction
system.cpu.commit.op_class_0::FloatMemWrite        39297      0.00%    100.00% # Class of committed instruction
system.cpu.commit.op_class_0::IprAccess             0      0.00%    100.00% # Class of committed instruction
system.cpu.commit.op_class_0::InstPrefetch            0      0.00%    100.00% # Class of committed instruction
system.cpu.commit.op_class_0::total        1163576925                       # Class of committed instruction
system.cpu.commit.refs                      108798761                       # Number of memory references committed
system.cpu.commit.swp_count                         0                       # Number of s/w prefetches committed
system.cpu.commit.vec_insts                         0                       # Number of committed Vector instructions.
system.cpu.committedInsts                   531197648                       # Number of Instructions Simulated
system.cpu.committedOps                    1163576925                       # Number of Ops (including micro ops) Simulated
system.cpu.cpi                               0.609455                       # CPI: Cycles Per Instruction
system.cpu.cpi_total                         0.609455                       # CPI: Total CPI of All Threads
system.cpu.dcache.prefetcher.num_hwpf_issued        11251                       # number of hwpf issued
system.cpu.dcache.prefetcher.pfBufferHit        33487                       # number of redundant prefetches already in prefetch queue
system.cpu.dcache.prefetcher.pfIdentified        52491                       # number of prefetch candidates identified
system.cpu.dcache.prefetcher.pfInCache              0                       # number of redundant prefetches already in cache/mshr dropped
system.cpu.dcache.prefetcher.pfRemovedFull            0                       # number of prefetches dropped due to prefetch queue size
system.cpu.dcache.prefetcher.pfSpanPage          4981                       # number of prefetches that crossed the page
system.cpu.decode.BlockedCycles               1873735                       # Number of cycles decode is blocked
system.cpu.decode.DecodedInsts             1168022960                       # Number of instructions handled by decode
system.cpu.decode.IdleCycles                  2859527                       # Number of cycles decode is idle
system.cpu.decode.RunCycles                 318392034                       # Number of cycles decode is running
system.cpu.decode.SquashCycles                 142075                       # Number of cycles decode is squashing
system.cpu.decode.UnblockCycles                301139                       # Number of cycles decode is unblocking
system.cpu.dtb.rdAccesses                   106803669                       # TLB accesses on read requests
system.cpu.dtb.rdMisses                          2197                       # TLB misses on read requests
system.cpu.dtb.wrAccesses                     2271506                       # TLB accesses on write requests
system.cpu.dtb.wrMisses                           181                       # TLB misses on write requests
system.cpu.fetch.Branches                   209743832                       # Number of branches that fetch encountered
system.cpu.fetch.CacheLines                   2616413                       # Number of cache lines fetched
system.cpu.fetch.Cycles                     320607318                       # Number of cycles fetch has run and was not squashing or blocked
system.cpu.fetch.IcacheSquashes                 10621                       # Number of outstanding Icache misses that were squashed
system.cpu.fetch.Insts                      533823042                       # Number of instructions fetch has processed
system.cpu.fetch.MiscStallCycles                  142                       # Number of cycles fetch has spent waiting on interrupts, or bad addresses, or out of MSHRs
system.cpu.fetch.PendingQuiesceStallCycles            6                       # Number of stall cycles due to pending quiesce instructions
system.cpu.fetch.PendingTrapStallCycles           645                       # Number of stall cycles due to pending traps
system.cpu.fetch.SquashCycles                  284150                       # Number of cycles fetch has spent squashing
system.cpu.fetch.branchRate                  0.647876                       # Number of branch fetches per cycle
system.cpu.fetch.icacheStallCycles            2818324                       # Number of cycles fetch is stalled on an Icache miss
system.cpu.fetch.predictedBranches          104912565                       # Number of branches that fetch has predicted taken
system.cpu.fetch.rate                        1.648921                       # Number of inst fetches per cycle
system.cpu.fetch.rateDist::samples          323568510                       # Number of instructions fetched each cycle (Total)
system.cpu.fetch.rateDist::mean              3.611939                       # Number of instructions fetched each cycle (Total)
system.cpu.fetch.rateDist::stdev             0.652364                       # Number of instructions fetched each cycle (Total)
system.cpu.fetch.rateDist::underflows               0      0.00%      0.00% # Number of instructions fetched each cycle (Total)
system.cpu.fetch.rateDist::0                  4471024      1.38%      1.38% # Number of instructions fetched each cycle (Total)
system.cpu.fetch.rateDist::1                  1044464      0.32%      1.70% # Number of instructions fetched each cycle (Total)
system.cpu.fetch.rateDist::2                   473549      0.15%      1.85% # Number of instructions fetched each cycle (Total)
system.cpu.fetch.rateDist::3                103599658     32.02%     33.87% # Number of instructions fetched each cycle (Total)
system.cpu.fetch.rateDist::4                213979815     66.13%    100.00% # Number of instructions fetched each cycle (Total)
system.cpu.fetch.rateDist::overflows                0      0.00%    100.00% # Number of instructions fetched each cycle (Total)
system.cpu.fetch.rateDist::min_value                0                       # Number of instructions fetched each cycle (Total)
system.cpu.fetch.rateDist::max_value                4                       # Number of instructions fetched each cycle (Total)
system.cpu.fetch.rateDist::total            323568510                       # Number of instructions fetched each cycle (Total)
system.cpu.fp_regfile_reads                   1839997                       # number of floating regfile reads
system.cpu.fp_regfile_writes                   948676                       # number of floating regfile writes
system.cpu.fuPool.fu_ticks_busy::IntALU(0)  70363400000                       # Total ticks fu was busy
system.cpu.fuPool.fu_ticks_busy::IntALU(1)  70363400000                       # Total ticks fu was busy
system.cpu.fuPool.fu_ticks_busy::IntALU(2)  70363400000                       # Total ticks fu was busy
system.cpu.fuPool.fu_ticks_busy::IntALU(3)  70363400000                       # Total ticks fu was busy
system.cpu.fuPool.fu_ticks_busy::IntALU(4)  70363399600                       # Total ticks fu was busy
system.cpu.fuPool.fu_ticks_busy::IntALU(5)  70363399600                       # Total ticks fu was busy
system.cpu.fuPool.fu_ticks_busy::IntMultDiv(0)     40670400                       # Total ticks fu was busy
system.cpu.fuPool.fu_ticks_busy::IntMultDiv(1)     40670000                       # Total ticks fu was busy
system.cpu.fuPool.fu_ticks_busy::FP_ALU(0)      4184800                       # Total ticks fu was busy
system.cpu.fuPool.fu_ticks_busy::FP_ALU(1)      4184400                       # Total ticks fu was busy
system.cpu.fuPool.fu_ticks_busy::FP_ALU(2)      4184400                       # Total ticks fu was busy
system.cpu.fuPool.fu_ticks_busy::FP_ALU(3)      4184400                       # Total ticks fu was busy
system.cpu.fuPool.fu_ticks_busy::FP_MultDiv(0)            0                       # Total ticks fu was busy
system.cpu.fuPool.fu_ticks_busy::FP_MultDiv(1)            0                       # Total ticks fu was busy
system.cpu.fuPool.fu_ticks_busy::SIMD_Unit(0)     78451200                       # Total ticks fu was busy
system.cpu.fuPool.fu_ticks_busy::SIMD_Unit(1)     71061200                       # Total ticks fu was busy
system.cpu.fuPool.fu_ticks_busy::SIMD_Unit(2)     78214400                       # Total ticks fu was busy
system.cpu.fuPool.fu_ticks_busy::SIMD_Unit(3)     78401600                       # Total ticks fu was busy
system.cpu.fuPool.fu_ticks_busy::PredALU(0)            0                       # Total ticks fu was busy
system.cpu.fuPool.fu_ticks_busy::RdWrPort(0)  10917655600                       # Total ticks fu was busy
system.cpu.fuPool.fu_ticks_busy::RdWrPort(1)  10917628400                       # Total ticks fu was busy
system.cpu.fuPool.fu_ticks_busy::RdWrPort(2)  10917628000                       # Total ticks fu was busy
system.cpu.fuPool.fu_ticks_busy::RdWrPort(3)  10917451600                       # Total ticks fu was busy
system.cpu.fuPool.fu_ticks_busy::IprPort(0)            0                       # Total ticks fu was busy
system.cpu.fuPool.fu_ticks_busy::total   466254969600                       # Total ticks fu was busy
system.cpu.icache.prefetcher.num_hwpf_issued            0                       # number of hwpf issued
system.cpu.icache.prefetcher.pfBufferHit            0                       # number of redundant prefetches already in prefetch queue
system.cpu.icache.prefetcher.pfIdentified            0                       # number of prefetch candidates identified
system.cpu.icache.prefetcher.pfInCache              0                       # number of redundant prefetches already in cache/mshr dropped
system.cpu.icache.prefetcher.pfRemovedFull            0                       # number of prefetches dropped due to prefetch queue size
system.cpu.icache.prefetcher.pfSpanPage             0                       # number of prefetches that crossed the page
system.cpu.idleCycles                          172364                       # Total number of cycles that the CPU has spent unscheduled due to idling
system.cpu.iew.branchMispredicts               172686                       # Number of branch mispredicts detected at execute
system.cpu.iew.exec_branches                209222034                       # Number of branches executed
system.cpu.iew.exec_nop                             0                       # number of nop insts executed
system.cpu.iew.exec_rate                     3.600096                       # Inst execution rate
system.cpu.iew.exec_refs                    109073409                       # number of memory reference insts executed
system.cpu.iew.exec_stores                    2268023                       # Number of stores executed
system.cpu.iew.exec_swp                             0                       # number of swp insts executed
system.cpu.iew.iewBlockCycles                 1197662                       # Number of cycles IEW is blocking
system.cpu.iew.iewDispLoadInsts             106951721                       # Number of dispatched load instructions
system.cpu.iew.iewDispNonSpecInsts               6828                       # Number of dispatched non-speculative instructions
system.cpu.iew.iewDispSquashedInsts              7922                       # Number of squashed instructions skipped by dispatch
system.cpu.iew.iewDispStoreInsts              2346390                       # Number of dispatched store instructions
system.cpu.iew.iewDispatchedInsts          1166711654                       # Number of instructions dispatched to IQ
system.cpu.iew.iewExecLoadInsts             106805386                       # Number of load instructions executed
system.cpu.iew.iewExecSquashedInsts            296788                       # Number of squashed instructions skipped in execute
system.cpu.iew.iewExecutedInsts            1165498141                       # Number of executed instructions
system.cpu.iew.iewIQFullEvents                   3369                       # Number of times the IQ has become full, causing a stall
system.cpu.iew.iewIdleCycles                        0                       # Number of cycles IEW is idle
system.cpu.iew.iewLSQFullEvents                 35402                       # Number of times the LSQ has become full, causing a stall
system.cpu.iew.iewSquashCycles                 142075                       # Number of cycles IEW is squashing
system.cpu.iew.iewUnblockCycles                 41756                       # Number of cycles IEW is unblocking
system.cpu.iew.lsq.thread0.blockedLoads             0                       # Number of blocked loads due to partial load-store forwarding
system.cpu.iew.lsq.thread0.cacheBlocked           607                       # Number of times an access to memory failed due to the cache being blocked
system.cpu.iew.lsq.thread0.forwLoads           152176                       # Number of loads that had data forwarded from stores
system.cpu.iew.lsq.thread0.ignoredResponses          414                       # Number of memory responses ignored because the instruction is squashed
system.cpu.iew.lsq.thread0.invAddrLoads             0                       # Number of loads ignored due to an invalid address
system.cpu.iew.lsq.thread0.invAddrSwpfs             0                       # Number of software prefetches ignored due to an invalid address
system.cpu.iew.lsq.thread0.memOrderViolation          165                       # Number of memory ordering violations
system.cpu.iew.lsq.thread0.rescheduledLoads           29                       # Number of loads that were rescheduled
system.cpu.iew.lsq.thread0.squashedLoads       374221                       # Number of loads squashed
system.cpu.iew.lsq.thread0.squashedStores       125126                       # Number of stores squashed
system.cpu.iew.memOrderViolationEvents            165                       # Number of memory order violations
system.cpu.iew.predictedNotTakenIncorrect       141800                       # Number of branches that were predicted not taken incorrectly
system.cpu.iew.predictedTakenIncorrect          30886                       # Number of branches that were predicted taken incorrectly
system.cpu.iew.wb_consumers                1276163311                       # num instructions consuming a value
system.cpu.iew.wb_count                    1165427607                       # cumulative count of insts written-back
system.cpu.iew.wb_fanout                     0.744760                       # average fanout of values written-back
system.cpu.iew.wb_producers                 950435080                       # num instructions producing a value
system.cpu.iew.wb_rate                       3.599878                       # insts written-back per cycle
system.cpu.iew.wb_sent                     1165449087                       # cumulative count of insts sent to commit
system.cpu.int_regfile_reads               1285337289                       # number of integer regfile reads
system.cpu.int_regfile_writes               953160475                       # number of integer regfile writes
system.cpu.ipc                               1.640811                       # IPC: Instructions Per Cycle
system.cpu.ipc_total                         1.640811                       # IPC: Total IPC of All Threads
system.cpu.iq.FU_type_0::No_OpClass            157505      0.01%      0.01% # Type of FU issued
system.cpu.iq.FU_type_0::IntAlu            1055450999     90.53%     90.55% # Type of FU issued
system.cpu.iq.FU_type_0::IntMult               161248      0.01%     90.56% # Type of FU issued
system.cpu.iq.FU_type_0::IntDiv                 42103      0.00%     90.57% # Type of FU issued
system.cpu.iq.FU_type_0::FloatAdd               40537      0.00%     90.57% # Type of FU issued
system.cpu.iq.FU_type_0::FloatCmp                   0      0.00%     90.57% # Type of FU issued
system.cpu.iq.FU_type_0::FloatCvt                1308      0.00%     90.57% # Type of FU issued
system.cpu.iq.FU_type_0::FloatMult                  0      0.00%     90.57% # Type of FU issued
system.cpu.iq.FU_type_0::FloatMultAcc               0      0.00%     90.57% # Type of FU issued
system.cpu.iq.FU_type_0::FloatDiv                   0      0.00%     90.57% # Type of FU issued
system.cpu.iq.FU_type_0::FloatMisc                  0      0.00%     90.57% # Type of FU issued
system.cpu.iq.FU_type_0::FloatSqrt                  0      0.00%     90.57% # Type of FU issued
system.cpu.iq.FU_type_0::SimdAdd                 6908      0.00%     90.57% # Type of FU issued
system.cpu.iq.FU_type_0::SimdAddAcc                 0      0.00%     90.57% # Type of FU issued
system.cpu.iq.FU_type_0::SimdAlu               230939      0.02%     90.59% # Type of FU issued
system.cpu.iq.FU_type_0::SimdCmp                    0      0.00%     90.59% # Type of FU issued
system.cpu.iq.FU_type_0::SimdCvt               176019      0.02%     90.60% # Type of FU issued
system.cpu.iq.FU_type_0::SimdMisc              349207      0.03%     90.63% # Type of FU issued
system.cpu.iq.FU_type_0::SimdMult                   0      0.00%     90.63% # Type of FU issued
system.cpu.iq.FU_type_0::SimdMultAcc                0      0.00%     90.63% # Type of FU issued
system.cpu.iq.FU_type_0::SimdShift               2248      0.00%     90.64% # Type of FU issued
system.cpu.iq.FU_type_0::SimdShiftAcc               0      0.00%     90.64% # Type of FU issued
system.cpu.iq.FU_type_0::SimdDiv                    0      0.00%     90.64% # Type of FU issued
system.cpu.iq.FU_type_0::SimdSqrt                   0      0.00%     90.64% # Type of FU issued
system.cpu.iq.FU_type_0::SimdFloatAdd               0      0.00%     90.64% # Type of FU issued
system.cpu.iq.FU_type_0::SimdFloatAlu               0      0.00%     90.64% # Type of FU issued
system.cpu.iq.FU_type_0::SimdFloatCmp               0      0.00%     90.64% # Type of FU issued
system.cpu.iq.FU_type_0::SimdFloatCvt               0      0.00%     90.64% # Type of FU issued
system.cpu.iq.FU_type_0::SimdFloatDiv               0      0.00%     90.64% # Type of FU issued
system.cpu.iq.FU_type_0::SimdFloatMisc              0      0.00%     90.64% # Type of FU issued
system.cpu.iq.FU_type_0::SimdFloatMult              0      0.00%     90.64% # Type of FU issued
system.cpu.iq.FU_type_0::SimdFloatMultAcc            0      0.00%     90.64% # Type of FU issued
system.cpu.iq.FU_type_0::SimdFloatSqrt              0      0.00%     90.64% # Type of FU issued
system.cpu.iq.FU_type_0::SimdReduceAdd              0      0.00%     90.64% # Type of FU issued
system.cpu.iq.FU_type_0::SimdReduceAlu              0      0.00%     90.64% # Type of FU issued
system.cpu.iq.FU_type_0::SimdReduceCmp              0      0.00%     90.64% # Type of FU issued
system.cpu.iq.FU_type_0::SimdFloatReduceAdd            0      0.00%     90.64% # Type of FU issued
system.cpu.iq.FU_type_0::SimdFloatReduceCmp            0      0.00%     90.64% # Type of FU issued
system.cpu.iq.FU_type_0::SimdAes                    0      0.00%     90.64% # Type of FU issued
system.cpu.iq.FU_type_0::SimdAesMix                 0      0.00%     90.64% # Type of FU issued
system.cpu.iq.FU_type_0::SimdSha1Hash               0      0.00%     90.64% # Type of FU issued
system.cpu.iq.FU_type_0::SimdSha1Hash2              0      0.00%     90.64% # Type of FU issued
system.cpu.iq.FU_type_0::SimdSha256Hash             0      0.00%     90.64% # Type of FU issued
system.cpu.iq.FU_type_0::SimdSha256Hash2            0      0.00%     90.64% # Type of FU issued
system.cpu.iq.FU_type_0::SimdShaSigma2              0      0.00%     90.64% # Type of FU issued
system.cpu.iq.FU_type_0::SimdShaSigma3              0      0.00%     90.64% # Type of FU issued
system.cpu.iq.FU_type_0::SimdPredAlu                0      0.00%     90.64% # Type of FU issued
system.cpu.iq.FU_type_0::MemRead            106754622      9.16%     99.79% # Type of FU issued
system.cpu.iq.FU_type_0::MemWrite             2247055      0.19%     99.99% # Type of FU issued
system.cpu.iq.FU_type_0::FloatMemRead          133640      0.01%    100.00% # Type of FU issued
system.cpu.iq.FU_type_0::FloatMemWrite          40594      0.00%    100.00% # Type of FU issued
system.cpu.iq.FU_type_0::IprAccess                  0      0.00%    100.00% # Type of FU issued
system.cpu.iq.FU_type_0::InstPrefetch               0      0.00%    100.00% # Type of FU issued
system.cpu.iq.FU_type_0::total             1165794932                       # Type of FU issued
system.cpu.iq.fp_alu_accesses                 1090381                       # Number of floating point alu accesses
system.cpu.iq.fp_inst_queue_reads             2182110                       # Number of floating instruction queue reads
system.cpu.iq.fp_inst_queue_wakeup_accesses      1086667                       # Number of floating instruction queue wakeup accesses
system.cpu.iq.fp_inst_queue_writes            1132448                       # Number of floating instruction queue writes
system.cpu.iq.fu_busy_cnt                           0                       # FU busy when requested
system.cpu.iq.fu_busy_rate                          0                       # FU busy rate (busy events/executed inst)
system.cpu.iq.fu_full::No_OpClass                   0                       # attempts to use FU when none available
system.cpu.iq.fu_full::IntAlu                       0                       # attempts to use FU when none available
system.cpu.iq.fu_full::IntMult                      0                       # attempts to use FU when none available
system.cpu.iq.fu_full::IntDiv                       0                       # attempts to use FU when none available
system.cpu.iq.fu_full::FloatAdd                     0                       # attempts to use FU when none available
system.cpu.iq.fu_full::FloatCmp                     0                       # attempts to use FU when none available
system.cpu.iq.fu_full::FloatCvt                     0                       # attempts to use FU when none available
system.cpu.iq.fu_full::FloatMult                    0                       # attempts to use FU when none available
system.cpu.iq.fu_full::FloatMultAcc                 0                       # attempts to use FU when none available
system.cpu.iq.fu_full::FloatDiv                     0                       # attempts to use FU when none available
system.cpu.iq.fu_full::FloatMisc                    0                       # attempts to use FU when none available
system.cpu.iq.fu_full::FloatSqrt                    0                       # attempts to use FU when none available
system.cpu.iq.fu_full::SimdAdd                      0                       # attempts to use FU when none available
system.cpu.iq.fu_full::SimdAddAcc                   0                       # attempts to use FU when none available
system.cpu.iq.fu_full::SimdAlu                      0                       # attempts to use FU when none available
system.cpu.iq.fu_full::SimdCmp                      0                       # attempts to use FU when none available
system.cpu.iq.fu_full::SimdCvt                      0                       # attempts to use FU when none available
system.cpu.iq.fu_full::SimdMisc                     0                       # attempts to use FU when none available
system.cpu.iq.fu_full::SimdMult                     0                       # attempts to use FU when none available
system.cpu.iq.fu_full::SimdMultAcc                  0                       # attempts to use FU when none available
system.cpu.iq.fu_full::SimdShift                    0                       # attempts to use FU when none available
system.cpu.iq.fu_full::SimdShiftAcc                 0                       # attempts to use FU when none available
system.cpu.iq.fu_full::SimdDiv                      0                       # attempts to use FU when none available
system.cpu.iq.fu_full::SimdSqrt                     0                       # attempts to use FU when none available
system.cpu.iq.fu_full::SimdFloatAdd                 0                       # attempts to use FU when none available
system.cpu.iq.fu_full::SimdFloatAlu                 0                       # attempts to use FU when none available
system.cpu.iq.fu_full::SimdFloatCmp                 0                       # attempts to use FU when none available
system.cpu.iq.fu_full::SimdFloatCvt                 0                       # attempts to use FU when none available
system.cpu.iq.fu_full::SimdFloatDiv                 0                       # attempts to use FU when none available
system.cpu.iq.fu_full::SimdFloatMisc                0                       # attempts to use FU when none available
system.cpu.iq.fu_full::SimdFloatMult                0                       # attempts to use FU when none available
system.cpu.iq.fu_full::SimdFloatMultAcc             0                       # attempts to use FU when none available
system.cpu.iq.fu_full::SimdFloatSqrt                0                       # attempts to use FU when none available
system.cpu.iq.fu_full::SimdReduceAdd                0                       # attempts to use FU when none available
system.cpu.iq.fu_full::SimdReduceAlu                0                       # attempts to use FU when none available
system.cpu.iq.fu_full::SimdReduceCmp                0                       # attempts to use FU when none available
system.cpu.iq.fu_full::SimdFloatReduceAdd            0                       # attempts to use FU when none available
system.cpu.iq.fu_full::SimdFloatReduceCmp            0                       # attempts to use FU when none available
system.cpu.iq.fu_full::SimdAes                      0                       # attempts to use FU when none available
system.cpu.iq.fu_full::SimdAesMix                   0                       # attempts to use FU when none available
system.cpu.iq.fu_full::SimdSha1Hash                 0                       # attempts to use FU when none available
system.cpu.iq.fu_full::SimdSha1Hash2                0                       # attempts to use FU when none available
system.cpu.iq.fu_full::SimdSha256Hash               0                       # attempts to use FU when none available
system.cpu.iq.fu_full::SimdSha256Hash2              0                       # attempts to use FU when none available
system.cpu.iq.fu_full::SimdShaSigma2                0                       # attempts to use FU when none available
system.cpu.iq.fu_full::SimdShaSigma3                0                       # attempts to use FU when none available
system.cpu.iq.fu_full::SimdPredAlu                  0                       # attempts to use FU when none available
system.cpu.iq.fu_full::MemRead                      0                       # attempts to use FU when none available
system.cpu.iq.fu_full::MemWrite                     0                       # attempts to use FU when none available
system.cpu.iq.fu_full::FloatMemRead                 0                       # attempts to use FU when none available
system.cpu.iq.fu_full::FloatMemWrite                0                       # attempts to use FU when none available
system.cpu.iq.fu_full::IprAccess                    0                       # attempts to use FU when none available
system.cpu.iq.fu_full::InstPrefetch                 0                       # attempts to use FU when none available
system.cpu.iq.int_alu_accesses             1164547046                       # Number of integer alu accesses
system.cpu.iq.int_inst_queue_reads         2653052354                       # Number of integer instruction queue reads
system.cpu.iq.int_inst_queue_wakeup_accesses   1164340940                       # Number of integer instruction queue wakeup accesses
system.cpu.iq.int_inst_queue_writes        1168714086                       # Number of integer instruction queue writes
system.cpu.iq.iqInstsAdded                 1166692984                       # Number of instructions added to the IQ (excludes non-spec)
system.cpu.iq.iqInstsIssued                1165794932                       # Number of instructions issued
system.cpu.iq.iqNonSpecInstsAdded               18670                       # Number of non-speculative instructions added to the IQ
system.cpu.iq.iqSquashedInstsExamined         3134718                       # Number of squashed instructions iterated over during squash; mainly for profiling
system.cpu.iq.iqSquashedInstsIssued             76093                       # Number of squashed instructions issued
system.cpu.iq.iqSquashedNonSpecRemoved          17871                       # Number of squashed non-spec instructions that were removed
system.cpu.iq.iqSquashedOperandsExamined      4297270                       # Number of squashed operands that are examined and possibly removed from graph
system.cpu.iq.issued_per_cycle::samples     323568510                       # Number of insts issued each cycle
system.cpu.iq.issued_per_cycle::mean         3.602931                       # Number of insts issued each cycle
system.cpu.iq.issued_per_cycle::stdev        0.636064                       # Number of insts issued each cycle
system.cpu.iq.issued_per_cycle::underflows            0      0.00%      0.00% # Number of insts issued each cycle
system.cpu.iq.issued_per_cycle::0             3014877      0.93%      0.93% # Number of insts issued each cycle
system.cpu.iq.issued_per_cycle::1             2050722      0.63%      1.57% # Number of insts issued each cycle
system.cpu.iq.issued_per_cycle::2             2480788      0.77%      2.33% # Number of insts issued each cycle
system.cpu.iq.issued_per_cycle::3           105305858     32.55%     34.88% # Number of insts issued each cycle
system.cpu.iq.issued_per_cycle::4           210716265     65.12%    100.00% # Number of insts issued each cycle
system.cpu.iq.issued_per_cycle::overflows            0      0.00%    100.00% # Number of insts issued each cycle
system.cpu.iq.issued_per_cycle::min_value            0                       # Number of insts issued each cycle
system.cpu.iq.issued_per_cycle::max_value            4                       # Number of insts issued each cycle
system.cpu.iq.issued_per_cycle::total       323568510                       # Number of insts issued each cycle
system.cpu.iq.rate                           3.601012                       # Inst issue rate
system.cpu.iq.vec_alu_accesses                      0                       # Number of vector alu accesses
system.cpu.iq.vec_inst_queue_reads                  0                       # Number of vector instruction queue reads
system.cpu.iq.vec_inst_queue_wakeup_accesses            0                       # Number of vector instruction queue wakeup accesses
system.cpu.iq.vec_inst_queue_writes                 0                       # Number of vector instruction queue writes
system.cpu.itb.rdAccesses                           0                       # TLB accesses on read requests
system.cpu.itb.rdMisses                             0                       # TLB misses on read requests
system.cpu.itb.wrAccesses                     2616525                       # TLB accesses on write requests
system.cpu.itb.wrMisses                           370                       # TLB misses on write requests
system.cpu.memDep0.conflictingLoads            133745                       # Number of conflicting loads.
system.cpu.memDep0.conflictingStores            71084                       # Number of conflicting stores.
system.cpu.memDep0.insertedLoads            106951721                       # Number of loads inserted to the mem dependence unit.
system.cpu.memDep0.insertedStores             2346390                       # Number of stores inserted to the mem dependence unit.
system.cpu.misc_regfile_reads               527809071                       # number of misc regfile reads
system.cpu.misc_regfile_writes                    720                       # number of misc regfile writes
system.cpu.numCycles                        323740874                       # number of cpu cycles simulated
system.cpu.numWorkItemsCompleted                    0                       # number of work items this cpu completed
system.cpu.numWorkItemsStarted                      0                       # number of work items this cpu started
system.cpu.process.numSyscalls                     78                       # Number of system calls
system.cpu.rename.BlockCycles                 1446148                       # Number of cycles rename is blocking
system.cpu.rename.CommittedMaps            1581396957                       # Number of HB maps that are committed
system.cpu.rename.FullRegisterEvents               40                       # Number of times there has been no free registers
system.cpu.rename.IQFullEvents                 183486                       # Number of times rename has blocked due to IQ full
system.cpu.rename.IdleCycles                  3062621                       # Number of cycles rename is idle
system.cpu.rename.LQFullEvents                  17947                       # Number of times rename has blocked due to LQ full
system.cpu.rename.ROBFullEvents                  4990                       # Number of times rename has blocked due to ROB full
system.cpu.rename.RenameLookups            2869515673                       # Number of register rename lookups that rename has made
system.cpu.rename.RenamedInsts             1167623916                       # Number of instructions processed by rename
system.cpu.rename.RenamedOperands          1586457868                       # Number of destination operands rename has renamed
system.cpu.rename.RunCycles                 318455803                       # Number of cycles rename is running
system.cpu.rename.SQFullEvents                 153323                       # Number of times rename has blocked due to SQ full
system.cpu.rename.SquashCycles                 142075                       # Number of cycles rename is squashing
system.cpu.rename.UnblockCycles                441150                       # Number of cycles rename is unblocking
system.cpu.rename.UndoneMaps                  5060888                       # Number of HB maps that are undone due to squashing
system.cpu.rename.fp_rename_lookups           1875921                       # Number of floating rename lookups
system.cpu.rename.int_rename_lookups       1288887906                       # Number of integer rename lookups
system.cpu.rename.serializeStallCycles          20713                       # count of cycles rename stalled for serializing inst
system.cpu.rename.serializingInsts                940                       # count of serializing insts renamed
system.cpu.rename.skidInsts                    617099                       # count of insts added to the skid buffer
system.cpu.rename.tempSerializingInsts            993                       # count of temporary serializing insts renamed
system.cpu.rob.rob_reads                   1277224820                       # The number of ROB reads
system.cpu.rob.rob_writes                  2334288971                       # The number of ROB writes
system.cpu.timesIdled                            2190                       # Number of times that the entire CPU went into an idle state and unscheduled itself
system.l2bus.snoop_filter.hit_multi_requests           13                       # Number of requests hitting in the snoop filter with multiple (>1) holders of the requested data.
system.l2bus.snoop_filter.hit_multi_snoops            0                       # Number of snoops hitting in the snoop filter with multiple (>1) holders of the requested data.
system.l2bus.snoop_filter.hit_single_requests        21635                       # Number of requests hitting in the snoop filter with a single holder of the requested data.
system.l2bus.snoop_filter.hit_single_snoops          489                       # Number of snoops hitting in the snoop filter with a single holder of the requested data.
system.l2bus.snoop_filter.tot_requests          44550                       # Total number of requests made to the snoop filter.
system.l2bus.snoop_filter.tot_snoops              489                       # Total number of snoops made to the snoop filter.
system.l2cache.prefetcher.num_hwpf_issued          828                       # number of hwpf issued
system.l2cache.prefetcher.pfBufferHit               0                       # number of redundant prefetches already in prefetch queue
system.l2cache.prefetcher.pfIdentified            829                       # number of prefetch candidates identified
system.l2cache.prefetcher.pfInCache                 0                       # number of redundant prefetches already in cache/mshr dropped
system.l2cache.prefetcher.pfRemovedFull             0                       # number of prefetches dropped due to prefetch queue size
system.l2cache.prefetcher.pfSpanPage               99                       # number of prefetches that crossed the page
system.membus.snoop_filter.hit_multi_requests            0                       # Number of requests hitting in the snoop filter with multiple (>1) holders of the requested data.
system.membus.snoop_filter.hit_multi_snoops            0                       # Number of snoops hitting in the snoop filter with multiple (>1) holders of the requested data.
system.membus.snoop_filter.hit_single_requests        10562                       # Number of requests hitting in the snoop filter with a single holder of the requested data.
system.membus.snoop_filter.hit_single_snoops            0                       # Number of snoops hitting in the snoop filter with a single holder of the requested data.
system.membus.snoop_filter.tot_requests         25234                       # Total number of requests made to the snoop filter.
system.membus.snoop_filter.tot_snoops               0                       # Total number of snoops made to the snoop filter.
system.membus.pwrStateResidencyTicks::UNDEFINED 129496349200                       # Cumulative time (in ticks) in various power states
system.membus.trans_dist::ReadResp              12852                       # Transaction distribution
system.membus.trans_dist::WritebackDirty         1409                       # Transaction distribution
system.membus.trans_dist::CleanEvict             9153                       # Transaction distribution
system.membus.trans_dist::ReadExReq              1820                       # Transaction distribution
system.membus.trans_dist::ReadExResp             1820                       # Transaction distribution
system.membus.trans_dist::ReadSharedReq         12852                       # Transaction distribution
system.membus.pkt_count_system.l2cache.mem_side::system.mem_ctrl.port        39906                       # Packet count per connected master and slave (bytes)
system.membus.pkt_count_system.l2cache.mem_side::total        39906                       # Packet count per connected master and slave (bytes)
system.membus.pkt_count::total                  39906                       # Packet count per connected master and slave (bytes)
system.membus.pkt_size_system.l2cache.mem_side::system.mem_ctrl.port      1029184                       # Cumulative packet size per connected master and slave (bytes)
system.membus.pkt_size_system.l2cache.mem_side::total      1029184                       # Cumulative packet size per connected master and slave (bytes)
system.membus.pkt_size::total                 1029184                       # Cumulative packet size per connected master and slave (bytes)
system.membus.snoops                                0                       # Total snoops (count)
system.membus.snoopTraffic                          0                       # Total snoop traffic (bytes)
system.membus.snoop_fanout::samples             14672                       # Request fanout histogram
system.membus.snoop_fanout::mean                    0                       # Request fanout histogram
system.membus.snoop_fanout::stdev                   0                       # Request fanout histogram
system.membus.snoop_fanout::underflows              0      0.00%      0.00% # Request fanout histogram
system.membus.snoop_fanout::0                   14672    100.00%    100.00% # Request fanout histogram
system.membus.snoop_fanout::1                       0      0.00%    100.00% # Request fanout histogram
system.membus.snoop_fanout::overflows               0      0.00%    100.00% # Request fanout histogram
system.membus.snoop_fanout::min_value               0                       # Request fanout histogram
system.membus.snoop_fanout::max_value               0                       # Request fanout histogram
system.membus.snoop_fanout::total               14672                       # Request fanout histogram
system.membus.reqLayer2.occupancy            12391949                       # Layer occupancy (ticks)
system.membus.reqLayer2.utilization               0.0                       # Layer utilization (%)
system.membus.respLayer0.occupancy           31837451                       # Layer occupancy (ticks)
system.membus.respLayer0.utilization              0.0                       # Layer utilization (%)
system.l2bus.pwrStateResidencyTicks::UNDEFINED 129496349200                       # Cumulative time (in ticks) in various power states
system.l2bus.trans_dist::ReadResp               20137                       # Transaction distribution
system.l2bus.trans_dist::WritebackDirty          5207                       # Transaction distribution
system.l2bus.trans_dist::CleanEvict             27082                       # Transaction distribution
system.l2bus.trans_dist::HardPFReq               1168                       # Transaction distribution
system.l2bus.trans_dist::ReadExReq               2778                       # Transaction distribution
system.l2bus.trans_dist::ReadExResp              2778                       # Transaction distribution
system.l2bus.trans_dist::ReadSharedReq          20137                       # Transaction distribution
system.l2bus.pkt_count_system.cpu.icache.mem_side::system.l2cache.cpu_side        12081                       # Packet count per connected master and slave (bytes)
system.l2bus.pkt_count_system.cpu.dcache.mem_side::system.l2cache.cpu_side        55379                       # Packet count per connected master and slave (bytes)
system.l2bus.pkt_count::total                   67460                       # Packet count per connected master and slave (bytes)
system.l2bus.pkt_size_system.cpu.icache.mem_side::system.l2cache.cpu_side       263296                       # Cumulative packet size per connected master and slave (bytes)
system.l2bus.pkt_size_system.cpu.dcache.mem_side::system.l2cache.cpu_side      1446016                       # Cumulative packet size per connected master and slave (bytes)
system.l2bus.pkt_size::total                  1709312                       # Cumulative packet size per connected master and slave (bytes)
system.l2bus.snoops                             11827                       # Total snoops (count)
system.l2bus.snoopTraffic                       90496                       # Total snoop traffic (bytes)
system.l2bus.snoop_fanout::samples              34737                       # Request fanout histogram
system.l2bus.snoop_fanout::mean              0.014451                       # Request fanout histogram
system.l2bus.snoop_fanout::stdev             0.119344                       # Request fanout histogram
system.l2bus.snoop_fanout::underflows               0      0.00%      0.00% # Request fanout histogram
system.l2bus.snoop_fanout::0                    34235     98.55%     98.55% # Request fanout histogram
system.l2bus.snoop_fanout::1                      502      1.45%    100.00% # Request fanout histogram
system.l2bus.snoop_fanout::2                        0      0.00%    100.00% # Request fanout histogram
system.l2bus.snoop_fanout::overflows                0      0.00%    100.00% # Request fanout histogram
system.l2bus.snoop_fanout::min_value                0                       # Request fanout histogram
system.l2bus.snoop_fanout::max_value                1                       # Request fanout histogram
system.l2bus.snoop_fanout::total                34737                       # Request fanout histogram
system.l2bus.respLayer1.occupancy            22563597                       # Layer occupancy (ticks)
system.l2bus.respLayer1.utilization               0.0                       # Layer utilization (%)
system.l2bus.reqLayer0.occupancy             22469748                       # Layer occupancy (ticks)
system.l2bus.reqLayer0.utilization                0.0                       # Layer utilization (%)
system.l2bus.respLayer0.occupancy             4936398                       # Layer occupancy (ticks)
system.l2bus.respLayer0.utilization               0.0                       # Layer utilization (%)
system.clk_domain.clock                           400                       # Clock period in ticks
system.clk_domain.voltage_domain.voltage            1                       # Voltage in Volts
system.cpu.pwrStateResidencyTicks::ON    129496349200                       # Cumulative time (in ticks) in various power states
system.cpu.icache.pwrStateResidencyTicks::UNDEFINED 129496349200                       # Cumulative time (in ticks) in various power states
system.cpu.icache.demand_hits::.cpu.inst      2611547                       # number of demand (read+write) hits
system.cpu.icache.demand_hits::total          2611547                       # number of demand (read+write) hits
system.cpu.icache.overall_hits::.cpu.inst      2611547                       # number of overall hits
system.cpu.icache.overall_hits::total         2611547                       # number of overall hits
system.cpu.icache.demand_misses::.cpu.inst         4864                       # number of demand (read+write) misses
system.cpu.icache.demand_misses::total           4864                       # number of demand (read+write) misses
system.cpu.icache.overall_misses::.cpu.inst         4864                       # number of overall misses
system.cpu.icache.overall_misses::total          4864                       # number of overall misses
system.cpu.icache.demand_miss_latency::.cpu.inst    198358000                       # number of demand (read+write) miss cycles
system.cpu.icache.demand_miss_latency::total    198358000                       # number of demand (read+write) miss cycles
system.cpu.icache.overall_miss_latency::.cpu.inst    198358000                       # number of overall miss cycles
system.cpu.icache.overall_miss_latency::total    198358000                       # number of overall miss cycles
system.cpu.icache.demand_accesses::.cpu.inst      2616411                       # number of demand (read+write) accesses
system.cpu.icache.demand_accesses::total      2616411                       # number of demand (read+write) accesses
system.cpu.icache.overall_accesses::.cpu.inst      2616411                       # number of overall (read+write) accesses
system.cpu.icache.overall_accesses::total      2616411                       # number of overall (read+write) accesses
system.cpu.icache.demand_miss_rate::.cpu.inst     0.001859                       # miss rate for demand accesses
system.cpu.icache.demand_miss_rate::total     0.001859                       # miss rate for demand accesses
system.cpu.icache.overall_miss_rate::.cpu.inst     0.001859                       # miss rate for overall accesses
system.cpu.icache.overall_miss_rate::total     0.001859                       # miss rate for overall accesses
system.cpu.icache.demand_avg_miss_latency::.cpu.inst 40780.838816                       # average overall miss latency
system.cpu.icache.demand_avg_miss_latency::total 40780.838816                       # average overall miss latency
system.cpu.icache.overall_avg_miss_latency::.cpu.inst 40780.838816                       # average overall miss latency
system.cpu.icache.overall_avg_miss_latency::total 40780.838816                       # average overall miss latency
system.cpu.icache.blocked_cycles::no_mshrs          114                       # number of cycles access was blocked
system.cpu.icache.blocked_cycles::no_targets            0                       # number of cycles access was blocked
system.cpu.icache.blocked::no_mshrs                 6                       # number of cycles access was blocked
system.cpu.icache.blocked::no_targets               0                       # number of cycles access was blocked
system.cpu.icache.avg_blocked_cycles::no_mshrs           19                       # average number of cycles each access was blocked
system.cpu.icache.avg_blocked_cycles::no_targets          nan                       # average number of cycles each access was blocked
system.cpu.icache.writebacks::.writebacks            3                       # number of writebacks
system.cpu.icache.writebacks::total                 3                       # number of writebacks
system.cpu.icache.demand_mshr_hits::.cpu.inst          751                       # number of demand (read+write) MSHR hits
system.cpu.icache.demand_mshr_hits::total          751                       # number of demand (read+write) MSHR hits
system.cpu.icache.overall_mshr_hits::.cpu.inst          751                       # number of overall MSHR hits
system.cpu.icache.overall_mshr_hits::total          751                       # number of overall MSHR hits
system.cpu.icache.demand_mshr_misses::.cpu.inst         4113                       # number of demand (read+write) MSHR misses
system.cpu.icache.demand_mshr_misses::total         4113                       # number of demand (read+write) MSHR misses
system.cpu.icache.overall_mshr_misses::.cpu.inst         4113                       # number of overall MSHR misses
system.cpu.icache.overall_mshr_misses::total         4113                       # number of overall MSHR misses
system.cpu.icache.demand_mshr_miss_latency::.cpu.inst    161813600                       # number of demand (read+write) MSHR miss cycles
system.cpu.icache.demand_mshr_miss_latency::total    161813600                       # number of demand (read+write) MSHR miss cycles
system.cpu.icache.overall_mshr_miss_latency::.cpu.inst    161813600                       # number of overall MSHR miss cycles
system.cpu.icache.overall_mshr_miss_latency::total    161813600                       # number of overall MSHR miss cycles
system.cpu.icache.demand_mshr_miss_rate::.cpu.inst     0.001572                       # mshr miss rate for demand accesses
system.cpu.icache.demand_mshr_miss_rate::total     0.001572                       # mshr miss rate for demand accesses
system.cpu.icache.overall_mshr_miss_rate::.cpu.inst     0.001572                       # mshr miss rate for overall accesses
system.cpu.icache.overall_mshr_miss_rate::total     0.001572                       # mshr miss rate for overall accesses
system.cpu.icache.demand_avg_mshr_miss_latency::.cpu.inst 39341.988816                       # average overall mshr miss latency
system.cpu.icache.demand_avg_mshr_miss_latency::total 39341.988816                       # average overall mshr miss latency
system.cpu.icache.overall_avg_mshr_miss_latency::.cpu.inst 39341.988816                       # average overall mshr miss latency
system.cpu.icache.overall_avg_mshr_miss_latency::total 39341.988816                       # average overall mshr miss latency
system.cpu.icache.replacements                   3857                       # number of replacements
system.cpu.icache.ReadReq_hits::.cpu.inst      2611547                       # number of ReadReq hits
system.cpu.icache.ReadReq_hits::total         2611547                       # number of ReadReq hits
system.cpu.icache.ReadReq_misses::.cpu.inst         4864                       # number of ReadReq misses
system.cpu.icache.ReadReq_misses::total          4864                       # number of ReadReq misses
system.cpu.icache.ReadReq_miss_latency::.cpu.inst    198358000                       # number of ReadReq miss cycles
system.cpu.icache.ReadReq_miss_latency::total    198358000                       # number of ReadReq miss cycles
system.cpu.icache.ReadReq_accesses::.cpu.inst      2616411                       # number of ReadReq accesses(hits+misses)
system.cpu.icache.ReadReq_accesses::total      2616411                       # number of ReadReq accesses(hits+misses)
system.cpu.icache.ReadReq_miss_rate::.cpu.inst     0.001859                       # miss rate for ReadReq accesses
system.cpu.icache.ReadReq_miss_rate::total     0.001859                       # miss rate for ReadReq accesses
system.cpu.icache.ReadReq_avg_miss_latency::.cpu.inst 40780.838816                       # average ReadReq miss latency
system.cpu.icache.ReadReq_avg_miss_latency::total 40780.838816                       # average ReadReq miss latency
system.cpu.icache.ReadReq_mshr_hits::.cpu.inst          751                       # number of ReadReq MSHR hits
system.cpu.icache.ReadReq_mshr_hits::total          751                       # number of ReadReq MSHR hits
system.cpu.icache.ReadReq_mshr_misses::.cpu.inst         4113                       # number of ReadReq MSHR misses
system.cpu.icache.ReadReq_mshr_misses::total         4113                       # number of ReadReq MSHR misses
system.cpu.icache.ReadReq_mshr_miss_latency::.cpu.inst    161813600                       # number of ReadReq MSHR miss cycles
system.cpu.icache.ReadReq_mshr_miss_latency::total    161813600                       # number of ReadReq MSHR miss cycles
system.cpu.icache.ReadReq_mshr_miss_rate::.cpu.inst     0.001572                       # mshr miss rate for ReadReq accesses
system.cpu.icache.ReadReq_mshr_miss_rate::total     0.001572                       # mshr miss rate for ReadReq accesses
system.cpu.icache.ReadReq_avg_mshr_miss_latency::.cpu.inst 39341.988816                       # average ReadReq mshr miss latency
system.cpu.icache.ReadReq_avg_mshr_miss_latency::total 39341.988816                       # average ReadReq mshr miss latency
system.cpu.icache.prefetcher.pwrStateResidencyTicks::UNDEFINED 129496349200                       # Cumulative time (in ticks) in various power states
system.cpu.icache.tags.pwrStateResidencyTicks::UNDEFINED 129496349200                       # Cumulative time (in ticks) in various power states
system.cpu.icache.tags.tagsinuse           255.978640                       # Cycle average of tags in use
system.cpu.icache.tags.total_refs             1693951                       # Total number of references to valid blocks.
system.cpu.icache.tags.sampled_refs              3857                       # Sample count of references to valid blocks.
system.cpu.icache.tags.avg_refs            439.188748                       # Average number of references to valid blocks.
system.cpu.icache.tags.warmup_cycle             66400                       # Cycle when the warmup percentage was hit.
system.cpu.icache.tags.occ_blocks::.cpu.inst   255.978640                       # Average occupied blocks per requestor
system.cpu.icache.tags.occ_percent::.cpu.inst     0.999917                       # Average percentage of cache occupancy
system.cpu.icache.tags.occ_percent::total     0.999917                       # Average percentage of cache occupancy
system.cpu.icache.tags.occ_task_id_blocks::1024          256                       # Occupied blocks per task id
system.cpu.icache.tags.age_task_id_blocks_1024::0           93                       # Occupied blocks per task id
system.cpu.icache.tags.age_task_id_blocks_1024::1            2                       # Occupied blocks per task id
system.cpu.icache.tags.age_task_id_blocks_1024::3           13                       # Occupied blocks per task id
system.cpu.icache.tags.age_task_id_blocks_1024::4          148                       # Occupied blocks per task id
system.cpu.icache.tags.occ_task_id_percent::1024            1                       # Percentage of cache occupancy per task id
system.cpu.icache.tags.tag_accesses           5236935                       # Number of tag accesses
system.cpu.icache.tags.data_accesses          5236935                       # Number of data accesses
system.cpu.dtb.walker.pwrStateResidencyTicks::UNDEFINED 129496349200                       # Cumulative time (in ticks) in various power states
system.cpu.interrupts.clk_domain.clock           6400                       # Clock period in ticks
system.cpu.itb.walker.pwrStateResidencyTicks::UNDEFINED 129496349200                       # Cumulative time (in ticks) in various power states
system.cpu.dcache.pwrStateResidencyTicks::UNDEFINED 129496349200                       # Cumulative time (in ticks) in various power states
system.cpu.dcache.demand_hits::.cpu.data    108837415                       # number of demand (read+write) hits
system.cpu.dcache.demand_hits::total        108837415                       # number of demand (read+write) hits
system.cpu.dcache.overall_hits::.cpu.data    108837415                       # number of overall hits
system.cpu.dcache.overall_hits::total       108837415                       # number of overall hits
system.cpu.dcache.demand_misses::.cpu.data        37503                       # number of demand (read+write) misses
system.cpu.dcache.demand_misses::total          37503                       # number of demand (read+write) misses
system.cpu.dcache.overall_misses::.cpu.data        37503                       # number of overall misses
system.cpu.dcache.overall_misses::total         37503                       # number of overall misses
system.cpu.dcache.demand_miss_latency::.cpu.data   1782676800                       # number of demand (read+write) miss cycles
system.cpu.dcache.demand_miss_latency::total   1782676800                       # number of demand (read+write) miss cycles
system.cpu.dcache.overall_miss_latency::.cpu.data   1782676800                       # number of overall miss cycles
system.cpu.dcache.overall_miss_latency::total   1782676800                       # number of overall miss cycles
system.cpu.dcache.demand_accesses::.cpu.data    108874918                       # number of demand (read+write) accesses
system.cpu.dcache.demand_accesses::total    108874918                       # number of demand (read+write) accesses
system.cpu.dcache.overall_accesses::.cpu.data    108874918                       # number of overall (read+write) accesses
system.cpu.dcache.overall_accesses::total    108874918                       # number of overall (read+write) accesses
system.cpu.dcache.demand_miss_rate::.cpu.data     0.000344                       # miss rate for demand accesses
system.cpu.dcache.demand_miss_rate::total     0.000344                       # miss rate for demand accesses
system.cpu.dcache.overall_miss_rate::.cpu.data     0.000344                       # miss rate for overall accesses
system.cpu.dcache.overall_miss_rate::total     0.000344                       # miss rate for overall accesses
system.cpu.dcache.demand_avg_miss_latency::.cpu.data 47534.245260                       # average overall miss latency
system.cpu.dcache.demand_avg_miss_latency::total 47534.245260                       # average overall miss latency
system.cpu.dcache.overall_avg_miss_latency::.cpu.data 47534.245260                       # average overall miss latency
system.cpu.dcache.overall_avg_miss_latency::total 47534.245260                       # average overall miss latency
system.cpu.dcache.blocked_cycles::no_mshrs        28690                       # number of cycles access was blocked
system.cpu.dcache.blocked_cycles::no_targets          138                       # number of cycles access was blocked
system.cpu.dcache.blocked::no_mshrs               770                       # number of cycles access was blocked
system.cpu.dcache.blocked::no_targets               1                       # number of cycles access was blocked
system.cpu.dcache.avg_blocked_cycles::no_mshrs    37.259740                       # average number of cycles each access was blocked
system.cpu.dcache.avg_blocked_cycles::no_targets          138                       # average number of cycles each access was blocked
system.cpu.dcache.unused_prefetches              2029                       # number of HardPF blocks evicted w/o reference
system.cpu.dcache.writebacks::.writebacks         3795                       # number of writebacks
system.cpu.dcache.writebacks::total              3795                       # number of writebacks
system.cpu.dcache.demand_mshr_hits::.cpu.data        23686                       # number of demand (read+write) MSHR hits
system.cpu.dcache.demand_mshr_hits::total        23686                       # number of demand (read+write) MSHR hits
system.cpu.dcache.overall_mshr_hits::.cpu.data        23686                       # number of overall MSHR hits
system.cpu.dcache.overall_mshr_hits::total        23686                       # number of overall MSHR hits
system.cpu.dcache.demand_mshr_misses::.cpu.data        13817                       # number of demand (read+write) MSHR misses
system.cpu.dcache.demand_mshr_misses::total        13817                       # number of demand (read+write) MSHR misses
system.cpu.dcache.overall_mshr_misses::.cpu.data        13817                       # number of overall MSHR misses
system.cpu.dcache.overall_mshr_misses::.cpu.dcache.prefetcher         4985                       # number of overall MSHR misses
system.cpu.dcache.overall_mshr_misses::total        18802                       # number of overall MSHR misses
system.cpu.dcache.demand_mshr_miss_latency::.cpu.data    624001600                       # number of demand (read+write) MSHR miss cycles
system.cpu.dcache.demand_mshr_miss_latency::total    624001600                       # number of demand (read+write) MSHR miss cycles
system.cpu.dcache.overall_mshr_miss_latency::.cpu.data    624001600                       # number of overall MSHR miss cycles
system.cpu.dcache.overall_mshr_miss_latency::.cpu.dcache.prefetcher    272945588                       # number of overall MSHR miss cycles
system.cpu.dcache.overall_mshr_miss_latency::total    896947188                       # number of overall MSHR miss cycles
system.cpu.dcache.demand_mshr_miss_rate::.cpu.data     0.000127                       # mshr miss rate for demand accesses
system.cpu.dcache.demand_mshr_miss_rate::total     0.000127                       # mshr miss rate for demand accesses
system.cpu.dcache.overall_mshr_miss_rate::.cpu.data     0.000127                       # mshr miss rate for overall accesses
system.cpu.dcache.overall_mshr_miss_rate::.cpu.dcache.prefetcher          inf                       # mshr miss rate for overall accesses
system.cpu.dcache.overall_mshr_miss_rate::total     0.000173                       # mshr miss rate for overall accesses
system.cpu.dcache.demand_avg_mshr_miss_latency::.cpu.data 45161.873055                       # average overall mshr miss latency
system.cpu.dcache.demand_avg_mshr_miss_latency::total 45161.873055                       # average overall mshr miss latency
system.cpu.dcache.overall_avg_mshr_miss_latency::.cpu.data 45161.873055                       # average overall mshr miss latency
system.cpu.dcache.overall_avg_mshr_miss_latency::.cpu.dcache.prefetcher 54753.377733                       # average overall mshr miss latency
system.cpu.dcache.overall_avg_mshr_miss_latency::total 47704.881821                       # average overall mshr miss latency
system.cpu.dcache.replacements                  17778                       # number of replacements
system.cpu.dcache.ReadReq_hits::.cpu.data    106615559                       # number of ReadReq hits
system.cpu.dcache.ReadReq_hits::total       106615559                       # number of ReadReq hits
system.cpu.dcache.ReadReq_misses::.cpu.data        34616                       # number of ReadReq misses
system.cpu.dcache.ReadReq_misses::total         34616                       # number of ReadReq misses
system.cpu.dcache.ReadReq_miss_latency::.cpu.data   1639381200                       # number of ReadReq miss cycles
system.cpu.dcache.ReadReq_miss_latency::total   1639381200                       # number of ReadReq miss cycles
system.cpu.dcache.ReadReq_accesses::.cpu.data    106650175                       # number of ReadReq accesses(hits+misses)
system.cpu.dcache.ReadReq_accesses::total    106650175                       # number of ReadReq accesses(hits+misses)
system.cpu.dcache.ReadReq_miss_rate::.cpu.data     0.000325                       # miss rate for ReadReq accesses
system.cpu.dcache.ReadReq_miss_rate::total     0.000325                       # miss rate for ReadReq accesses
system.cpu.dcache.ReadReq_avg_miss_latency::.cpu.data 47359.059394                       # average ReadReq miss latency
system.cpu.dcache.ReadReq_avg_miss_latency::total 47359.059394                       # average ReadReq miss latency
system.cpu.dcache.ReadReq_mshr_hits::.cpu.data        23576                       # number of ReadReq MSHR hits
system.cpu.dcache.ReadReq_mshr_hits::total        23576                       # number of ReadReq MSHR hits
system.cpu.dcache.ReadReq_mshr_misses::.cpu.data        11040                       # number of ReadReq MSHR misses
system.cpu.dcache.ReadReq_mshr_misses::total        11040                       # number of ReadReq MSHR misses
system.cpu.dcache.ReadReq_mshr_miss_latency::.cpu.data    486917200                       # number of ReadReq MSHR miss cycles
system.cpu.dcache.ReadReq_mshr_miss_latency::total    486917200                       # number of ReadReq MSHR miss cycles
system.cpu.dcache.ReadReq_mshr_miss_rate::.cpu.data     0.000104                       # mshr miss rate for ReadReq accesses
system.cpu.dcache.ReadReq_mshr_miss_rate::total     0.000104                       # mshr miss rate for ReadReq accesses
system.cpu.dcache.ReadReq_avg_mshr_miss_latency::.cpu.data 44104.818841                       # average ReadReq mshr miss latency
system.cpu.dcache.ReadReq_avg_mshr_miss_latency::total 44104.818841                       # average ReadReq mshr miss latency
system.cpu.dcache.WriteReq_hits::.cpu.data      2221856                       # number of WriteReq hits
system.cpu.dcache.WriteReq_hits::total        2221856                       # number of WriteReq hits
system.cpu.dcache.WriteReq_misses::.cpu.data         2887                       # number of WriteReq misses
system.cpu.dcache.WriteReq_misses::total         2887                       # number of WriteReq misses
system.cpu.dcache.WriteReq_miss_latency::.cpu.data    143295600                       # number of WriteReq miss cycles
system.cpu.dcache.WriteReq_miss_latency::total    143295600                       # number of WriteReq miss cycles
system.cpu.dcache.WriteReq_accesses::.cpu.data      2224743                       # number of WriteReq accesses(hits+misses)
system.cpu.dcache.WriteReq_accesses::total      2224743                       # number of WriteReq accesses(hits+misses)
system.cpu.dcache.WriteReq_miss_rate::.cpu.data     0.001298                       # miss rate for WriteReq accesses
system.cpu.dcache.WriteReq_miss_rate::total     0.001298                       # miss rate for WriteReq accesses
system.cpu.dcache.WriteReq_avg_miss_latency::.cpu.data 49634.776585                       # average WriteReq miss latency
system.cpu.dcache.WriteReq_avg_miss_latency::total 49634.776585                       # average WriteReq miss latency
system.cpu.dcache.WriteReq_mshr_hits::.cpu.data          110                       # number of WriteReq MSHR hits
system.cpu.dcache.WriteReq_mshr_hits::total          110                       # number of WriteReq MSHR hits
system.cpu.dcache.WriteReq_mshr_misses::.cpu.data         2777                       # number of WriteReq MSHR misses
[...]
system.l2cache.demand_mshr_misses::.cpu.data          148                       # number of demand (read+write) MSHR misses
system.l2cache.demand_mshr_misses::.cpu.dcache.prefetcher           44                       # number of demand (read+write) MSHR misses
system.l2cache.demand_mshr_misses::total          434                       # number of demand (read+write) MSHR misses
system.l2cache.overall_mshr_misses::.cpu.inst          242                       # number of overall MSHR misses
system.l2cache.overall_mshr_misses::.cpu.data          148                       # number of overall MSHR misses
system.l2cache.overall_mshr_misses::.cpu.dcache.prefetcher           44                       # number of overall MSHR misses
system.l2cache.overall_mshr_misses::total          434                       # number of overall MSHR misses
system.l2cache.demand_mshr_miss_latency::.cpu.inst     14443600                       # number of demand (read+write) MSHR miss cycles
system.l2cache.demand_mshr_miss_latency::.cpu.data      8811200                       # number of demand (read+write) MSHR miss cycles
system.l2cache.demand_mshr_miss_latency::.cpu.dcache.prefetcher      2940756                       # number of demand (read+write) MSHR miss cycles
system.l2cache.demand_mshr_miss_latency::total     26195556                       # number of demand (read+write) MSHR miss cycles
system.l2cache.overall_mshr_miss_latency::.cpu.inst     14443600                       # number of overall MSHR miss cycles
system.l2cache.overall_mshr_miss_latency::.cpu.data      8811200                       # number of overall MSHR miss cycles
system.l2cache.overall_mshr_miss_latency::.cpu.dcache.prefetcher      2940756                       # number of overall MSHR miss cycles
system.l2cache.overall_mshr_miss_latency::total     26195556                       # number of overall MSHR miss cycles
system.l2cache.demand_mshr_miss_rate::.cpu.inst     0.330150                       # mshr miss rate for demand accesses
system.l2cache.demand_mshr_miss_rate::.cpu.data     0.280835                       # mshr miss rate for demand accesses
system.l2cache.demand_mshr_miss_rate::.cpu.dcache.prefetcher     0.846154                       # mshr miss rate for demand accesses
system.l2cache.demand_mshr_miss_rate::total     0.330793                       # mshr miss rate for demand accesses
system.l2cache.overall_mshr_miss_rate::.cpu.inst     0.330150                       # mshr miss rate for overall accesses
system.l2cache.overall_mshr_miss_rate::.cpu.data     0.280835                       # mshr miss rate for overall accesses
system.l2cache.overall_mshr_miss_rate::.cpu.dcache.prefetcher     0.846154                       # mshr miss rate for overall accesses
system.l2cache.overall_mshr_miss_rate::total     0.330793                       # mshr miss rate for overall accesses
system.l2cache.demand_avg_mshr_miss_latency::.cpu.inst 59684.297521                       # average overall mshr miss latency
system.l2cache.demand_avg_mshr_miss_latency::.cpu.data 59535.135135                       # average overall mshr miss latency
system.l2cache.demand_avg_mshr_miss_latency::.cpu.dcache.prefetcher 66835.363636                       # average overall mshr miss latency
system.l2cache.demand_avg_mshr_miss_latency::total 60358.423963                       # average overall mshr miss latency
system.l2cache.overall_avg_mshr_miss_latency::.cpu.inst 59684.297521                       # average overall mshr miss latency
system.l2cache.overall_avg_mshr_miss_latency::.cpu.data 59535.135135                       # average overall mshr miss latency
system.l2cache.overall_avg_mshr_miss_latency::.cpu.dcache.prefetcher 66835.363636                       # average overall mshr miss latency
system.l2cache.overall_avg_mshr_miss_latency::total 60358.423963                       # average overall mshr miss latency
system.l2cache.replacements                       437                       # number of replacements
system.l2cache.WritebackDirty_hits::.writebacks          466                       # number of WritebackDirty hits
system.l2cache.WritebackDirty_hits::total          466                       # number of WritebackDirty hits
system.l2cache.WritebackDirty_accesses::.writebacks          466                       # number of WritebackDirty accesses(hits+misses)
system.l2cache.WritebackDirty_accesses::total          466                       # number of WritebackDirty accesses(hits+misses)
system.l2cache.CleanEvict_mshr_misses::.writebacks            8                       # number of CleanEvict MSHR misses
system.l2cache.CleanEvict_mshr_misses::total            8                       # number of CleanEvict MSHR misses
system.l2cache.CleanEvict_mshr_miss_rate::.writebacks          inf                       # mshr miss rate for CleanEvict accesses
system.l2cache.CleanEvict_mshr_miss_rate::total          inf                       # mshr miss rate for CleanEvict accesses
system.l2cache.ReadExReq_hits::.cpu.data           86                       # number of ReadExReq hits
system.l2cache.ReadExReq_hits::total               86                       # number of ReadExReq hits
system.l2cache.ReadExReq_misses::.cpu.data            6                       # number of ReadExReq misses
system.l2cache.ReadExReq_misses::total              6                       # number of ReadExReq misses
system.l2cache.ReadExReq_miss_latency::.cpu.data       422800                       # number of ReadExReq miss cycles
system.l2cache.ReadExReq_miss_latency::total       422800                       # number of ReadExReq miss cycles
system.l2cache.ReadExReq_accesses::.cpu.data           92                       # number of ReadExReq accesses(hits+misses)
system.l2cache.ReadExReq_accesses::total           92                       # number of ReadExReq accesses(hits+misses)
system.l2cache.ReadExReq_miss_rate::.cpu.data     0.065217                       # miss rate for ReadExReq accesses
system.l2cache.ReadExReq_miss_rate::total     0.065217                       # miss rate for ReadExReq accesses
system.l2cache.ReadExReq_avg_miss_latency::.cpu.data 70466.666667                       # average ReadExReq miss latency
system.l2cache.ReadExReq_avg_miss_latency::total 70466.666667                       # average ReadExReq miss latency
system.l2cache.ReadExReq_mshr_misses::.cpu.data            6                       # number of ReadExReq MSHR misses
system.l2cache.ReadExReq_mshr_misses::total            6                       # number of ReadExReq MSHR misses
system.l2cache.ReadExReq_mshr_miss_latency::.cpu.data       374800                       # number of ReadExReq MSHR miss cycles
system.l2cache.ReadExReq_mshr_miss_latency::total       374800                       # number of ReadExReq MSHR miss cycles
system.l2cache.ReadExReq_mshr_miss_rate::.cpu.data     0.065217                       # mshr miss rate for ReadExReq accesses
system.l2cache.ReadExReq_mshr_miss_rate::total     0.065217                       # mshr miss rate for ReadExReq accesses
system.l2cache.ReadExReq_avg_mshr_miss_latency::.cpu.data 62466.666667                       # average ReadExReq mshr miss latency
system.l2cache.ReadExReq_avg_mshr_miss_latency::total 62466.666667                       # average ReadExReq mshr miss latency
system.l2cache.ReadSharedReq_hits::.cpu.inst          491                       # number of ReadSharedReq hits
system.l2cache.ReadSharedReq_hits::.cpu.data          293                       # number of ReadSharedReq hits
system.l2cache.ReadSharedReq_hits::.cpu.dcache.prefetcher            8                       # number of ReadSharedReq hits
system.l2cache.ReadSharedReq_hits::total          792                       # number of ReadSharedReq hits
system.l2cache.ReadSharedReq_misses::.cpu.inst          242                       # number of ReadSharedReq misses
system.l2cache.ReadSharedReq_misses::.cpu.data          142                       # number of ReadSharedReq misses
system.l2cache.ReadSharedReq_misses::.cpu.dcache.prefetcher           44                       # number of ReadSharedReq misses
system.l2cache.ReadSharedReq_misses::total          428                       # number of ReadSharedReq misses
system.l2cache.ReadSharedReq_miss_latency::.cpu.inst     16371600                       # number of ReadSharedReq miss cycles
system.l2cache.ReadSharedReq_miss_latency::.cpu.data      9572400                       # number of ReadSharedReq miss cycles
system.l2cache.ReadSharedReq_miss_latency::.cpu.dcache.prefetcher      3292756                       # number of ReadSharedReq miss cycles
system.l2cache.ReadSharedReq_miss_latency::total     29236756                       # number of ReadSharedReq miss cycles
system.l2cache.ReadSharedReq_accesses::.cpu.inst          733                       # number of ReadSharedReq accesses(hits+misses)
system.l2cache.ReadSharedReq_accesses::.cpu.data          435                       # number of ReadSharedReq accesses(hits+misses)
system.l2cache.ReadSharedReq_accesses::.cpu.dcache.prefetcher           52                       # number of ReadSharedReq accesses(hits+misses)
system.l2cache.ReadSharedReq_accesses::total         1220                       # number of ReadSharedReq accesses(hits+misses)
system.l2cache.ReadSharedReq_miss_rate::.cpu.inst     0.330150                       # miss rate for ReadSharedReq accesses
system.l2cache.ReadSharedReq_miss_rate::.cpu.data     0.326437                       # miss rate for ReadSharedReq accesses
system.l2cache.ReadSharedReq_miss_rate::.cpu.dcache.prefetcher     0.846154                       # miss rate for ReadSharedReq accesses
system.l2cache.ReadSharedReq_miss_rate::total     0.350820                       # miss rate for ReadSharedReq accesses
system.l2cache.ReadSharedReq_avg_miss_latency::.cpu.inst 67651.239669                       # average ReadSharedReq miss latency
system.l2cache.ReadSharedReq_avg_miss_latency::.cpu.data 67411.267606                       # average ReadSharedReq miss latency
system.l2cache.ReadSharedReq_avg_miss_latency::.cpu.dcache.prefetcher 74835.363636                       # average ReadSharedReq miss latency
system.l2cache.ReadSharedReq_avg_miss_latency::total 68310.177570                       # average ReadSharedReq miss latency
system.l2cache.ReadSharedReq_mshr_misses::.cpu.inst          242                       # number of ReadSharedReq MSHR misses
system.l2cache.ReadSharedReq_mshr_misses::.cpu.data          142                       # number of ReadSharedReq MSHR misses
system.l2cache.ReadSharedReq_mshr_misses::.cpu.dcache.prefetcher           44                       # number of ReadSharedReq MSHR misses
system.l2cache.ReadSharedReq_mshr_misses::total          428                       # number of ReadSharedReq MSHR misses
system.l2cache.ReadSharedReq_mshr_miss_latency::.cpu.inst     14443600                       # number of ReadSharedReq MSHR miss cycles
system.l2cache.ReadSharedReq_mshr_miss_latency::.cpu.data      8436400                       # number of ReadSharedReq MSHR miss cycles
system.l2cache.ReadSharedReq_mshr_miss_latency::.cpu.dcache.prefetcher      2940756                       # number of ReadSharedReq MSHR miss cycles
system.l2cache.ReadSharedReq_mshr_miss_latency::total     25820756                       # number of ReadSharedReq MSHR miss cycles
system.l2cache.ReadSharedReq_mshr_miss_rate::.cpu.inst     0.330150                       # mshr miss rate for ReadSharedReq accesses
system.l2cache.ReadSharedReq_mshr_miss_rate::.cpu.data     0.326437                       # mshr miss rate for ReadSharedReq accesses
system.l2cache.ReadSharedReq_mshr_miss_rate::.cpu.dcache.prefetcher     0.846154                       # mshr miss rate for ReadSharedReq accesses
system.l2cache.ReadSharedReq_mshr_miss_rate::total     0.350820                       # mshr miss rate for ReadSharedReq accesses
system.l2cache.ReadSharedReq_avg_mshr_miss_latency::.cpu.inst 59684.297521                       # average ReadSharedReq mshr miss latency
system.l2cache.ReadSharedReq_avg_mshr_miss_latency::.cpu.data 59411.267606                       # average ReadSharedReq mshr miss latency
system.l2cache.ReadSharedReq_avg_mshr_miss_latency::.cpu.dcache.prefetcher 66835.363636                       # average ReadSharedReq mshr miss latency
system.l2cache.ReadSharedReq_avg_mshr_miss_latency::total 60328.869159                       # average ReadSharedReq mshr miss latency
system.l2cache.prefetcher.pwrStateResidencyTicks::UNDEFINED   1397112400                       # Cumulative time (in ticks) in various power states
system.l2cache.tags.pwrStateResidencyTicks::UNDEFINED   1397112400                       # Cumulative time (in ticks) in various power states
system.l2cache.tags.tagsinuse                    4096                       # Cycle average of tags in use
system.l2cache.tags.total_refs                  17937                       # Total number of references to valid blocks.
system.l2cache.tags.sampled_refs                 4533                       # Sample count of references to valid blocks.
system.l2cache.tags.avg_refs                 3.956982                       # Average number of references to valid blocks.
system.l2cache.tags.warmup_cycle                    0                       # Cycle when the warmup percentage was hit.
system.l2cache.tags.occ_blocks::.writebacks    41.980819                       # Average occupied blocks per requestor
system.l2cache.tags.occ_blocks::.cpu.inst   992.046891                       # Average occupied blocks per requestor
system.l2cache.tags.occ_blocks::.cpu.data  1908.131544                       # Average occupied blocks per requestor
system.l2cache.tags.occ_blocks::.cpu.dcache.prefetcher   922.887070                       # Average occupied blocks per requestor
system.l2cache.tags.occ_blocks::.l2cache.prefetcher   230.953676                       # Average occupied blocks per requestor
system.l2cache.tags.occ_percent::.writebacks     0.010249                       # Average percentage of cache occupancy
system.l2cache.tags.occ_percent::.cpu.inst     0.242199                       # Average percentage of cache occupancy
system.l2cache.tags.occ_percent::.cpu.data     0.465852                       # Average percentage of cache occupancy
system.l2cache.tags.occ_percent::.cpu.dcache.prefetcher     0.225314                       # Average percentage of cache occupancy
system.l2cache.tags.occ_percent::.l2cache.prefetcher     0.056385                       # Average percentage of cache occupancy
system.l2cache.tags.occ_percent::total              1                       # Average percentage of cache occupancy
system.l2cache.tags.occ_task_id_blocks::1022         1098                       # Occupied blocks per task id
system.l2cache.tags.occ_task_id_blocks::1024         2998                       # Occupied blocks per task id
system.l2cache.tags.age_task_id_blocks_1022::0           15                       # Occupied blocks per task id
system.l2cache.tags.age_task_id_blocks_1022::1            9                       # Occupied blocks per task id
system.l2cache.tags.age_task_id_blocks_1022::3           21                       # Occupied blocks per task id
system.l2cache.tags.age_task_id_blocks_1022::4         1053                       # Occupied blocks per task id
system.l2cache.tags.age_task_id_blocks_1024::0          179                       # Occupied blocks per task id
system.l2cache.tags.age_task_id_blocks_1024::1           77                       # Occupied blocks per task id
system.l2cache.tags.age_task_id_blocks_1024::3          135                       # Occupied blocks per task id
system.l2cache.tags.age_task_id_blocks_1024::4         2607                       # Occupied blocks per task id
system.l2cache.tags.occ_task_id_percent::1022     0.268066                       # Percentage of cache occupancy per task id
system.l2cache.tags.occ_task_id_percent::1024     0.731934                       # Percentage of cache occupancy per task id
system.l2cache.tags.tag_accesses                21421                       # Number of tag accesses
system.l2cache.tags.data_accesses               21421                       # Number of data accesses
system.mem_ctrl.pwrStateResidencyTicks::UNDEFINED   1397112400                       # Cumulative time (in ticks) in various power states
system.mem_ctrl.bytes_read::.cpu.inst           15424                       # Number of bytes read from this memory
system.mem_ctrl.bytes_read::.cpu.data            9472                       # Number of bytes read from this memory
system.mem_ctrl.bytes_read::.cpu.dcache.prefetcher         2816                       # Number of bytes read from this memory
system.mem_ctrl.bytes_read::total               27712                       # Number of bytes read from this memory
system.mem_ctrl.bytes_inst_read::.cpu.inst        15424                       # Number of instructions bytes read from this memory
system.mem_ctrl.bytes_inst_read::total          15424                       # Number of instructions bytes read from this memory
system.mem_ctrl.bytes_written::.writebacks         2496                       # Number of bytes written to this memory
system.mem_ctrl.bytes_written::total             2496                       # Number of bytes written to this memory
system.mem_ctrl.num_reads::.cpu.inst              241                       # Number of read requests responded to by this memory
system.mem_ctrl.num_reads::.cpu.data              148                       # Number of read requests responded to by this memory
system.mem_ctrl.num_reads::.cpu.dcache.prefetcher           44                       # Number of read requests responded to by this memory
system.mem_ctrl.num_reads::total                  433                       # Number of read requests responded to by this memory
system.mem_ctrl.num_writes::.writebacks            39                       # Number of write requests responded to by this memory
system.mem_ctrl.num_writes::total                  39                       # Number of write requests responded to by this memory
system.mem_ctrl.bw_read::.cpu.inst           11039913                       # Total read bandwidth from this memory (bytes/s)
system.mem_ctrl.bw_read::.cpu.data            6779698                       # Total read bandwidth from this memory (bytes/s)
system.mem_ctrl.bw_read::.cpu.dcache.prefetcher      2015586                       # Total read bandwidth from this memory (bytes/s)
system.mem_ctrl.bw_read::total               19835197                       # Total read bandwidth from this memory (bytes/s)
system.mem_ctrl.bw_inst_read::.cpu.inst      11039913                       # Instruction read bandwidth from this memory (bytes/s)
system.mem_ctrl.bw_inst_read::total          11039913                       # Instruction read bandwidth from this memory (bytes/s)
system.mem_ctrl.bw_write::.writebacks         1786542                       # Write bandwidth from this memory (bytes/s)
system.mem_ctrl.bw_write::total               1786542                       # Write bandwidth from this memory (bytes/s)
system.mem_ctrl.bw_total::.writebacks         1786542                       # Total bandwidth to/from this memory (bytes/s)
system.mem_ctrl.bw_total::.cpu.inst          11039913                       # Total bandwidth to/from this memory (bytes/s)
system.mem_ctrl.bw_total::.cpu.data           6779698                       # Total bandwidth to/from this memory (bytes/s)
system.mem_ctrl.bw_total::.cpu.dcache.prefetcher      2015586                       # Total bandwidth to/from this memory (bytes/s)
system.mem_ctrl.bw_total::total              21621739                       # Total bandwidth to/from this memory (bytes/s)

---------- End Simulation Statistics   ----------
