
---------- Begin Simulation Statistics ----------
final_tick                                 1100639200                       # Number of ticks from beginning of simulation (restored from checkpoints and never reset)
host_inst_rate                                 184446                       # Simulator instruction rate (inst/s)
host_mem_usage                                4406832                       # Number of bytes of host memory used
host_op_rate                                   321078                       # Simulator op (including micro ops) rate (op/s)
host_seconds                                    11.29                       # Real time elapsed on the host
host_tick_rate                               97454040                       # Simulator tick rate (ticks/s)
sim_freq                                 1000000000000                       # Frequency of simulated ticks
sim_insts                                     2083103                       # Number of instructions simulated
sim_ops                                       3626231                       # Number of ops (including micro ops) simulated
sim_seconds                                  0.001101                       # Number of seconds simulated
sim_ticks                                  1100639200                       # Number of ticks simulated
system.cpu.branchPred.BTBCorrect                    0                       # Number of correct BTB predictions (this stat may not work properly.
system.cpu.branchPred.BTBHitPct              0.000000                       # BTB Hit Percentage
system.cpu.branchPred.BTBHits                       0                       # Number of BTB hits
system.cpu.branchPred.BTBLookups               438812                       # Number of BTB lookups
system.cpu.branchPred.RASInCorrect                 11                       # Number of incorrect RAS predictions.
system.cpu.branchPred.condIncorrect             24235                       # Number of conditional branches incorrect
system.cpu.branchPred.condPredicted            466218                       # Number of conditional branches predicted
system.cpu.branchPred.indirectHits             240679                       # Number of indirect target hits.
system.cpu.branchPred.indirectLookups          438812                       # Number of indirect predictor lookups.
system.cpu.branchPred.indirectMisses           198133                       # Number of indirect misses.
system.cpu.branchPred.lookups                  492724                       # Number of BP lookups
system.cpu.branchPred.usedRAS                   11520                       # Number of times the RAS was used to get a target.
system.cpu.branchPredindirectMispredicted        12026                       # Number of mispredicted indirect branches.
system.cpu.cc_regfile_reads                   2391401                       # number of cc regfile reads
system.cpu.cc_regfile_writes                  1947180                       # number of cc regfile writes
system.cpu.commit.amos                              0                       # Number of atomic instructions committed
system.cpu.commit.branchMispredicts             24326                       # The number of times a branch was mispredicted
system.cpu.commit.branches                     348967                       # Number of branches committed
system.cpu.commit.bw_lim_events                600014                       # number cycles where commit BW limit reached
system.cpu.commit.commitNonSpecStalls             742                       # The number of times commit has been forced to stall to communicate backwards
system.cpu.commit.commitSquashedInsts          884410                       # The number of squashed insts skipped by commit
system.cpu.commit.committedInsts              2083103                       # Number of instructions committed
system.cpu.commit.committedOps                3626231                       # Number of ops (including micro ops) committed
system.cpu.commit.committed_per_cycle::samples      2350458                       # Number of insts commited each cycle
system.cpu.commit.committed_per_cycle::mean     1.542776                       # Number of insts commited each cycle
system.cpu.commit.committed_per_cycle::stdev     1.722062                       # Number of insts commited each cycle
system.cpu.commit.committed_per_cycle::underflows            0      0.00%      0.00% # Number of insts commited each cycle
system.cpu.commit.committed_per_cycle::0      1161415     49.41%     49.41% # Number of insts commited each cycle
system.cpu.commit.committed_per_cycle::1       183906      7.82%     57.24% # Number of insts commited each cycle
system.cpu.commit.committed_per_cycle::2       173100      7.36%     64.60% # Number of insts commited each cycle
system.cpu.commit.committed_per_cycle::3       232023      9.87%     74.47% # Number of insts commited each cycle
system.cpu.commit.committed_per_cycle::4       600014     25.53%    100.00% # Number of insts commited each cycle
system.cpu.commit.committed_per_cycle::overflows            0      0.00%    100.00% # Number of insts commited each cycle
system.cpu.commit.committed_per_cycle::min_value            0                       # Number of insts commited each cycle
system.cpu.commit.committed_per_cycle::max_value            4                       # Number of insts commited each cycle
system.cpu.commit.committed_per_cycle::total      2350458                       # Number of insts commited each cycle
system.cpu.commit.fp_insts                      75987                       # Number of committed floating point instructions.
system.cpu.commit.function_calls                 9682                       # Number of function calls committed.
system.cpu.commit.int_insts                   3569326                       # Number of committed integer instructions.
system.cpu.commit.loads                        496007                       # Number of loads committed
system.cpu.commit.membars                           1                       # Number of memory barriers committed
system.cpu.commit.op_class_0::No_OpClass        20676      0.57%      0.57% # Class of committed instruction
system.cpu.commit.op_class_0::IntAlu          2851577     78.64%     79.21% # Class of committed instruction
system.cpu.commit.op_class_0::IntMult            1637      0.05%     79.25% # Class of committed instruction
system.cpu.commit.op_class_0::IntDiv            38333      1.06%     80.31% # Class of committed instruction
system.cpu.commit.op_class_0::FloatAdd           2947      0.08%     80.39% # Class of committed instruction
system.cpu.commit.op_class_0::FloatCmp              0      0.00%     80.39% # Class of committed instruction
system.cpu.commit.op_class_0::FloatCvt           1216      0.03%     80.42% # Class of committed instruction
system.cpu.commit.op_class_0::FloatMult             0      0.00%     80.42% # Class of committed instruction
system.cpu.commit.op_class_0::FloatMultAcc            0      0.00%     80.42% # Class of committed instruction
system.cpu.commit.op_class_0::FloatDiv              0      0.00%     80.42% # Class of committed instruction
system.cpu.commit.op_class_0::FloatMisc             0      0.00%     80.42% # Class of committed instruction
system.cpu.commit.op_class_0::FloatSqrt             0      0.00%     80.42% # Class of committed instruction
system.cpu.commit.op_class_0::SimdAdd            6238      0.17%     80.60% # Class of committed instruction
system.cpu.commit.op_class_0::SimdAddAcc            0      0.00%     80.60% # Class of committed instruction
system.cpu.commit.op_class_0::SimdAlu           11633      0.32%     80.92% # Class of committed instruction
system.cpu.commit.op_class_0::SimdCmp               0      0.00%     80.92% # Class of committed instruction
system.cpu.commit.op_class_0::SimdCvt           12552      0.35%     81.26% # Class of committed instruction
system.cpu.commit.op_class_0::SimdMisc           7412      0.20%     81.47% # Class of committed instruction
system.cpu.commit.op_class_0::SimdMult              0      0.00%     81.47% # Class of committed instruction
system.cpu.commit.op_class_0::SimdMultAcc            0      0.00%     81.47% # Class of committed instruction
system.cpu.commit.op_class_0::SimdShift          1184      0.03%     81.50% # Class of committed instruction
system.cpu.commit.op_class_0::SimdShiftAcc            0      0.00%     81.50% # Class of committed instruction
system.cpu.commit.op_class_0::SimdDiv               0      0.00%     81.50% # Class of committed instruction
system.cpu.commit.op_class_0::SimdSqrt              0      0.00%     81.50% # Class of committed instruction
system.cpu.commit.op_class_0::SimdFloatAdd            0      0.00%     81.50% # Class of committed instruction
system.cpu.commit.op_class_0::SimdFloatAlu            0      0.00%     81.50% # Class of committed instruction
system.cpu.commit.op_class_0::SimdFloatCmp            0      0.00%     81.50% # Class of committed instruction
system.cpu.commit.op_class_0::SimdFloatCvt            0      0.00%     81.50% # Class of committed instruction
system.cpu.commit.op_class_0::SimdFloatDiv            0      0.00%     81.50% # Class of committed instruction
system.cpu.commit.op_class_0::SimdFloatMisc            0      0.00%     81.50% # Class of committed instruction
system.cpu.commit.op_class_0::SimdFloatMult            0      0.00%     81.50% # Class of committed instruction
system.cpu.commit.op_class_0::SimdFloatMultAcc            0      0.00%     81.50% # Class of committed instruction
system.cpu.commit.op_class_0::SimdFloatSqrt            0      0.00%     81.50% # Class of committed instruction
system.cpu.commit.op_class_0::SimdReduceAdd            0      0.00%     81.50% # Class of committed instruction
system.cpu.commit.op_class_0::SimdReduceAlu            0      0.00%     81.50% # Class of committed instruction
system.cpu.commit.op_class_0::SimdReduceCmp            0      0.00%     81.50% # Class of committed instruction
system.cpu.commit.op_class_0::SimdFloatReduceAdd            0      0.00%     81.50% # Class of committed instruction
system.cpu.commit.op_class_0::SimdFloatReduceCmp            0      0.00%     81.50% # Class of committed instruction
system.cpu.commit.op_class_0::SimdAes               0      0.00%     81.50% # Class of committed instruction
system.cpu.commit.op_class_0::SimdAesMix            0      0.00%     81.50% # Class of committed instruction
system.cpu.commit.op_class_0::SimdSha1Hash            0      0.00%     81.50% # Class of committed instruction
system.cpu.commit.op_class_0::SimdSha1Hash2            0      0.00%     81.50% # Class of committed instruction
system.cpu.commit.op_class_0::SimdSha256Hash            0      0.00%     81.50% # Class of committed instruction
system.cpu.commit.op_class_0::SimdSha256Hash2            0      0.00%     81.50% # Class of committed instruction
system.cpu.commit.op_class_0::SimdShaSigma2            0      0.00%     81.50% # Class of committed instruction
system.cpu.commit.op_class_0::SimdShaSigma3            0      0.00%     81.50% # Class of committed instruction
system.cpu.commit.op_class_0::SimdPredAlu            0      0.00%     81.50% # Class of committed instruction
system.cpu.commit.op_class_0::MemRead          476529     13.14%     94.64% # Class of committed instruction
system.cpu.commit.op_class_0::MemWrite         162644      4.49%     99.13% # Class of committed instruction
system.cpu.commit.op_class_0::FloatMemRead        19478      0.54%     99.66% # Class of committed instruction
system.cpu.commit.op_class_0::FloatMemWrite        12175      0.34%    100.00% # Class of committed instruction
system.cpu.commit.op_class_0::IprAccess             0      0.00%    100.00% # Class of committed instruction
system.cpu.commit.op_class_0::InstPrefetch            0      0.00%    100.00% # Class of committed instruction
system.cpu.commit.op_class_0::total           3626231                       # Class of committed instruction
system.cpu.commit.refs                         670826                       # Number of memory references committed
system.cpu.commit.swp_count                         0                       # Number of s/w prefetches committed
system.cpu.commit.vec_insts                         0                       # Number of committed Vector instructions.
system.cpu.committedInsts                     2083103                       # Number of Instructions Simulated
system.cpu.committedOps                       3626231                       # Number of Ops (including micro ops) Simulated
system.cpu.cpi                               1.320914                       # CPI: Cycles Per Instruction
system.cpu.cpi_total                         1.320914                       # CPI: Total CPI of All Threads
system.cpu.dcache.prefetcher.num_hwpf_issued         8204                       # number of hwpf issued
system.cpu.dcache.prefetcher.pfBufferHit        33027                       # number of redundant prefetches already in prefetch queue
system.cpu.dcache.prefetcher.pfIdentified        48424                       # number of prefetch candidates identified
system.cpu.dcache.prefetcher.pfInCache              0                       # number of redundant prefetches already in cache/mshr dropped
system.cpu.dcache.prefetcher.pfRemovedFull            0                       # number of prefetches dropped due to prefetch queue size
system.cpu.dcache.prefetcher.pfSpanPage          4392                       # number of prefetches that crossed the page
system.cpu.decode.BlockedCycles               1027010                       # Number of cycles decode is blocked
system.cpu.decode.DecodedInsts                4726326                       # Number of instructions handled by decode
system.cpu.decode.IdleCycles                   301405                       # Number of cycles decode is idle
system.cpu.decode.RunCycles                   1149809                       # Number of cycles decode is running
system.cpu.decode.SquashCycles                  24391                       # Number of cycles decode is squashing
system.cpu.decode.UnblockCycles                 88562                       # Number of cycles decode is unblocking
system.cpu.dtb.rdAccesses                      579645                       # TLB accesses on read requests
system.cpu.dtb.rdMisses                          2055                       # TLB misses on read requests
system.cpu.dtb.wrAccesses                      194092                       # TLB accesses on write requests
system.cpu.dtb.wrMisses                           163                       # TLB misses on write requests
system.cpu.fetch.Branches                      492724                       # Number of branches that fetch encountered
system.cpu.fetch.CacheLines                    245238                       # Number of cache lines fetched
system.cpu.fetch.Cycles                       2227799                       # Number of cycles fetch has run and was not squashing or blocked
system.cpu.fetch.IcacheSquashes                  4635                       # Number of outstanding Icache misses that were squashed
system.cpu.fetch.IcacheWaitRetryStallCycles           17                       # Number of stall cycles due to full MSHR
system.cpu.fetch.Insts                        2850090                       # Number of instructions fetch has processed
system.cpu.fetch.MiscStallCycles                  100                       # Number of cycles fetch has spent waiting on interrupts, or bad addresses, or out of MSHRs
system.cpu.fetch.PendingQuiesceStallCycles            8                       # Number of stall cycles due to pending quiesce instructions
system.cpu.fetch.PendingTrapStallCycles           612                       # Number of stall cycles due to pending traps
system.cpu.fetch.SquashCycles                   48782                       # Number of cycles fetch has spent squashing
system.cpu.fetch.branchRate                  0.179068                       # Number of branch fetches per cycle
system.cpu.fetch.icacheStallCycles             338250                       # Number of cycles fetch is stalled on an Icache miss
system.cpu.fetch.predictedBranches             252199                       # Number of branches that fetch has predicted taken
system.cpu.fetch.rate                        1.035794                       # Number of inst fetches per cycle
system.cpu.fetch.rateDist::samples            2591177                       # Number of instructions fetched each cycle (Total)
system.cpu.fetch.rateDist::mean              1.929493                       # Number of instructions fetched each cycle (Total)
system.cpu.fetch.rateDist::stdev             1.930398                       # Number of instructions fetched each cycle (Total)
system.cpu.fetch.rateDist::underflows               0      0.00%      0.00% # Number of instructions fetched each cycle (Total)
system.cpu.fetch.rateDist::0                  1235569     47.68%     47.68% # Number of instructions fetched each cycle (Total)
system.cpu.fetch.rateDist::1                    75426      2.91%     50.59% # Number of instructions fetched each cycle (Total)
system.cpu.fetch.rateDist::2                    59898      2.31%     52.91% # Number of instructions fetched each cycle (Total)
system.cpu.fetch.rateDist::3                    76700      2.96%     55.87% # Number of instructions fetched each cycle (Total)
system.cpu.fetch.rateDist::4                  1143584     44.13%    100.00% # Number of instructions fetched each cycle (Total)
system.cpu.fetch.rateDist::overflows                0      0.00%    100.00% # Number of instructions fetched each cycle (Total)
system.cpu.fetch.rateDist::min_value                0                       # Number of instructions fetched each cycle (Total)
system.cpu.fetch.rateDist::max_value                4                       # Number of instructions fetched each cycle (Total)
system.cpu.fetch.rateDist::total              2591177                       # Number of instructions fetched each cycle (Total)
system.cpu.fp_regfile_reads                    124517                       # number of floating regfile reads
system.cpu.fp_regfile_writes                    68225                       # number of floating regfile writes
system.cpu.fuPool.fu_ticks_busy::IntALU(0)    218796000                       # Total ticks fu was busy
system.cpu.fuPool.fu_ticks_busy::IntALU(1)    218796000                       # Total ticks fu was busy
system.cpu.fuPool.fu_ticks_busy::IntALU(2)    218796000                       # Total ticks fu was busy
system.cpu.fuPool.fu_ticks_busy::IntALU(3)    218796000                       # Total ticks fu was busy
system.cpu.fuPool.fu_ticks_busy::IntALU(4)    218795600                       # Total ticks fu was busy
system.cpu.fuPool.fu_ticks_busy::IntALU(5)    218795600                       # Total ticks fu was busy
system.cpu.fuPool.fu_ticks_busy::IntMultDiv(0)      8778400                       # Total ticks fu was busy
system.cpu.fuPool.fu_ticks_busy::IntMultDiv(1)      8778000                       # Total ticks fu was busy
system.cpu.fuPool.fu_ticks_busy::FP_ALU(0)       576000                       # Total ticks fu was busy
system.cpu.fuPool.fu_ticks_busy::FP_ALU(1)       576000                       # Total ticks fu was busy
system.cpu.fuPool.fu_ticks_busy::FP_ALU(2)       575200                       # Total ticks fu was busy
system.cpu.fuPool.fu_ticks_busy::FP_ALU(3)       575200                       # Total ticks fu was busy
system.cpu.fuPool.fu_ticks_busy::FP_MultDiv(0)            0                       # Total ticks fu was busy
system.cpu.fuPool.fu_ticks_busy::FP_MultDiv(1)            0                       # Total ticks fu was busy
system.cpu.fuPool.fu_ticks_busy::SIMD_Unit(0)      4799200                       # Total ticks fu was busy
system.cpu.fuPool.fu_ticks_busy::SIMD_Unit(1)      4720000                       # Total ticks fu was busy
system.cpu.fuPool.fu_ticks_busy::SIMD_Unit(2)      4560800                       # Total ticks fu was busy
system.cpu.fuPool.fu_ticks_busy::SIMD_Unit(3)      4623600                       # Total ticks fu was busy
system.cpu.fuPool.fu_ticks_busy::PredALU(0)            0                       # Total ticks fu was busy
system.cpu.fuPool.fu_ticks_busy::RdWrPort(0)     78910000                       # Total ticks fu was busy
system.cpu.fuPool.fu_ticks_busy::RdWrPort(1)     78849200                       # Total ticks fu was busy
system.cpu.fuPool.fu_ticks_busy::RdWrPort(2)     78804800                       # Total ticks fu was busy
system.cpu.fuPool.fu_ticks_busy::RdWrPort(3)     78887600                       # Total ticks fu was busy
system.cpu.fuPool.fu_ticks_busy::IprPort(0)            0                       # Total ticks fu was busy
system.cpu.fuPool.fu_ticks_busy::total     1666789200                       # Total ticks fu was busy
system.cpu.icache.prefetcher.num_hwpf_issued            0                       # number of hwpf issued
system.cpu.icache.prefetcher.pfBufferHit            0                       # number of redundant prefetches already in prefetch queue
system.cpu.icache.prefetcher.pfIdentified            0                       # number of prefetch candidates identified
system.cpu.icache.prefetcher.pfInCache              0                       # number of redundant prefetches already in cache/mshr dropped
system.cpu.icache.prefetcher.pfRemovedFull            0                       # number of prefetches dropped due to prefetch queue size
system.cpu.icache.prefetcher.pfSpanPage             0                       # number of prefetches that crossed the page
system.cpu.idleCycles                          160422                       # Total number of cycles that the CPU has spent unscheduled due to idling
system.cpu.iew.branchMispredicts                28736                       # Number of branch mispredicts detected at execute
system.cpu.iew.exec_branches                   379626                       # Number of branches executed
system.cpu.iew.exec_nop                             0                       # number of nop insts executed
system.cpu.iew.exec_rate                     1.511466                       # Inst execution rate
system.cpu.iew.exec_refs                       775537                       # number of memory reference insts executed
system.cpu.iew.exec_stores                     194071                       # Number of stores executed
system.cpu.iew.exec_swp                             0                       # number of swp insts executed
system.cpu.iew.iewBlockCycles                  695036                       # Number of cycles IEW is blocking
system.cpu.iew.iewDispLoadInsts                612102                       # Number of dispatched load instructions
system.cpu.iew.iewDispNonSpecInsts                939                       # Number of dispatched non-speculative instructions
system.cpu.iew.iewDispSquashedInsts               605                       # Number of squashed instructions skipped by dispatch
system.cpu.iew.iewDispStoreInsts               204609                       # Number of dispatched store instructions
system.cpu.iew.iewDispatchedInsts             4510580                       # Number of instructions dispatched to IQ
system.cpu.iew.iewExecLoadInsts                581466                       # Number of load instructions executed
system.cpu.iew.iewExecSquashedInsts             34696                       # Number of squashed instructions skipped in execute
system.cpu.iew.iewExecutedInsts               4158947                       # Number of executed instructions
system.cpu.iew.iewIQFullEvents                   3289                       # Number of times the IQ has become full, causing a stall
system.cpu.iew.iewIdleCycles                        0                       # Number of cycles IEW is idle
system.cpu.iew.iewLSQFullEvents                  9406                       # Number of times the LSQ has become full, causing a stall
system.cpu.iew.iewSquashCycles                  24391                       # Number of cycles IEW is squashing
system.cpu.iew.iewUnblockCycles                 15531                       # Number of cycles IEW is unblocking
system.cpu.iew.lsq.thread0.blockedLoads             0                       # Number of blocked loads due to partial load-store forwarding
system.cpu.iew.lsq.thread0.cacheBlocked           578                       # Number of times an access to memory failed due to the cache being blocked
system.cpu.iew.lsq.thread0.forwLoads            40052                       # Number of loads that had data forwarded from stores
system.cpu.iew.lsq.thread0.ignoredResponses          243                       # Number of memory responses ignored because the instruction is squashed
system.cpu.iew.lsq.thread0.invAddrLoads             0                       # Number of loads ignored due to an invalid address
system.cpu.iew.lsq.thread0.invAddrSwpfs             0                       # Number of software prefetches ignored due to an invalid address
system.cpu.iew.lsq.thread0.memOrderViolation           80                       # Number of memory ordering violations
system.cpu.iew.lsq.thread0.rescheduledLoads            8                       # Number of loads that were rescheduled
system.cpu.iew.lsq.thread0.squashedLoads       116093                       # Number of loads squashed
system.cpu.iew.lsq.thread0.squashedStores        29789                       # Number of stores squashed
system.cpu.iew.memOrderViolationEvents             80                       # Number of memory order violations
system.cpu.iew.predictedNotTakenIncorrect        20393                       # Number of branches that were predicted not taken incorrectly
system.cpu.iew.predictedTakenIncorrect           8343                       # Number of branches that were predicted taken incorrectly
system.cpu.iew.wb_consumers                   5818581                       # num instructions consuming a value
system.cpu.iew.wb_count                       4136815                       # cumulative count of insts written-back
system.cpu.iew.wb_fanout                     0.567349                       # average fanout of values written-back
system.cpu.iew.wb_producers                   3301164                       # num instructions producing a value
system.cpu.iew.wb_rate                       1.503422                       # insts written-back per cycle
system.cpu.iew.wb_sent                        4143889                       # cumulative count of insts sent to commit
system.cpu.int_regfile_reads                  6443125                       # number of integer regfile reads
system.cpu.int_regfile_writes                 3572754                       # number of integer regfile writes
system.cpu.ipc                               0.757052                       # IPC: Instructions Per Cycle
system.cpu.ipc_total                         0.757052                       # IPC: Total IPC of All Threads
system.cpu.iq.FU_type_0::No_OpClass             26670      0.64%      0.64% # Type of FU issued
system.cpu.iq.FU_type_0::IntAlu               3281939     78.26%     78.90% # Type of FU issued
system.cpu.iq.FU_type_0::IntMult                 1659      0.04%     78.94% # Type of FU issued
system.cpu.iq.FU_type_0::IntDiv                 42232      1.01%     79.94% # Type of FU issued
system.cpu.iq.FU_type_0::FloatAdd                4494      0.11%     80.05% # Type of FU issued
system.cpu.iq.FU_type_0::FloatCmp                   0      0.00%     80.05% # Type of FU issued
system.cpu.iq.FU_type_0::FloatCvt                1262      0.03%     80.08% # Type of FU issued
system.cpu.iq.FU_type_0::FloatMult                  0      0.00%     80.08% # Type of FU issued
system.cpu.iq.FU_type_0::FloatMultAcc               0      0.00%     80.08% # Type of FU issued
system.cpu.iq.FU_type_0::FloatDiv                   0      0.00%     80.08% # Type of FU issued
system.cpu.iq.FU_type_0::FloatMisc                  0      0.00%     80.08% # Type of FU issued
system.cpu.iq.FU_type_0::FloatSqrt                  0      0.00%     80.08% # Type of FU issued
system.cpu.iq.FU_type_0::SimdAdd                 6892      0.16%     80.24% # Type of FU issued
system.cpu.iq.FU_type_0::SimdAddAcc                 0      0.00%     80.24% # Type of FU issued
system.cpu.iq.FU_type_0::SimdAlu                15274      0.36%     80.61% # Type of FU issued
system.cpu.iq.FU_type_0::SimdCmp                    0      0.00%     80.61% # Type of FU issued
system.cpu.iq.FU_type_0::SimdCvt                14344      0.34%     80.95% # Type of FU issued
system.cpu.iq.FU_type_0::SimdMisc                8008      0.19%     81.14% # Type of FU issued
system.cpu.iq.FU_type_0::SimdMult                   0      0.00%     81.14% # Type of FU issued
system.cpu.iq.FU_type_0::SimdMultAcc                0      0.00%     81.14% # Type of FU issued
system.cpu.iq.FU_type_0::SimdShift               2241      0.05%     81.19% # Type of FU issued
system.cpu.iq.FU_type_0::SimdShiftAcc               0      0.00%     81.19% # Type of FU issued
system.cpu.iq.FU_type_0::SimdDiv                    0      0.00%     81.19% # Type of FU issued
system.cpu.iq.FU_type_0::SimdSqrt                   0      0.00%     81.19% # Type of FU issued
system.cpu.iq.FU_type_0::SimdFloatAdd               0      0.00%     81.19% # Type of FU issued
system.cpu.iq.FU_type_0::SimdFloatAlu               0      0.00%     81.19% # Type of FU issued
system.cpu.iq.FU_type_0::SimdFloatCmp               0      0.00%     81.19% # Type of FU issued
system.cpu.iq.FU_type_0::SimdFloatCvt               0      0.00%     81.19% # Type of FU issued
system.cpu.iq.FU_type_0::SimdFloatDiv               0      0.00%     81.19% # Type of FU issued
system.cpu.iq.FU_type_0::SimdFloatMisc              0      0.00%     81.19% # Type of FU issued
system.cpu.iq.FU_type_0::SimdFloatMult              0      0.00%     81.19% # Type of FU issued
system.cpu.iq.FU_type_0::SimdFloatMultAcc            0      0.00%     81.19% # Type of FU issued
system.cpu.iq.FU_type_0::SimdFloatSqrt              0      0.00%     81.19% # Type of FU issued
system.cpu.iq.FU_type_0::SimdReduceAdd              0      0.00%     81.19% # Type of FU issued
system.cpu.iq.FU_type_0::SimdReduceAlu              0      0.00%     81.19% # Type of FU issued
system.cpu.iq.FU_type_0::SimdReduceCmp              0      0.00%     81.19% # Type of FU issued
system.cpu.iq.FU_type_0::SimdFloatReduceAdd            0      0.00%     81.19% # Type of FU issued
system.cpu.iq.FU_type_0::SimdFloatReduceCmp            0      0.00%     81.19% # Type of FU issued
system.cpu.iq.FU_type_0::SimdAes                    0      0.00%     81.19% # Type of FU issued
system.cpu.iq.FU_type_0::SimdAesMix                 0      0.00%     81.19% # Type of FU issued
system.cpu.iq.FU_type_0::SimdSha1Hash               0      0.00%     81.19% # Type of FU issued
system.cpu.iq.FU_type_0::SimdSha1Hash2              0      0.00%     81.19% # Type of FU issued
system.cpu.iq.FU_type_0::SimdSha256Hash             0      0.00%     81.19% # Type of FU issued
system.cpu.iq.FU_type_0::SimdSha256Hash2            0      0.00%     81.19% # Type of FU issued
system.cpu.iq.FU_type_0::SimdShaSigma2              0      0.00%     81.19% # Type of FU issued
system.cpu.iq.FU_type_0::SimdShaSigma3              0      0.00%     81.19% # Type of FU issued
system.cpu.iq.FU_type_0::SimdPredAlu                0      0.00%     81.19% # Type of FU issued
system.cpu.iq.FU_type_0::MemRead               566602     13.51%     94.71% # Type of FU issued
system.cpu.iq.FU_type_0::MemWrite              183092      4.37%     99.07% # Type of FU issued
system.cpu.iq.FU_type_0::FloatMemRead           25363      0.60%     99.68% # Type of FU issued
system.cpu.iq.FU_type_0::FloatMemWrite          13574      0.32%    100.00% # Type of FU issued
system.cpu.iq.FU_type_0::IprAccess                  0      0.00%    100.00% # Type of FU issued
system.cpu.iq.FU_type_0::InstPrefetch               0      0.00%    100.00% # Type of FU issued
system.cpu.iq.FU_type_0::total                4193646                       # Type of FU issued
system.cpu.iq.fp_alu_accesses                   92765                       # Number of floating point alu accesses
system.cpu.iq.fp_inst_queue_reads              186923                       # Number of floating instruction queue reads
system.cpu.iq.fp_inst_queue_wakeup_accesses        89349                       # Number of floating instruction queue wakeup accesses
system.cpu.iq.fp_inst_queue_writes             133239                       # Number of floating instruction queue writes
system.cpu.iq.fu_busy_cnt                           0                       # FU busy when requested
system.cpu.iq.fu_busy_rate                          0                       # FU busy rate (busy events/executed inst)
system.cpu.iq.fu_full::No_OpClass                   0                       # attempts to use FU when none available
system.cpu.iq.fu_full::IntAlu                       0                       # attempts to use FU when none available
system.cpu.iq.fu_full::IntMult                      0                       # attempts to use FU when none available
system.cpu.iq.fu_full::IntDiv                       0                       # attempts to use FU when none available
system.cpu.iq.fu_full::FloatAdd                     0                       # attempts to use FU when none available
system.cpu.iq.fu_full::FloatCmp                     0                       # attempts to use FU when none available
system.cpu.iq.fu_full::FloatCvt                     0                       # attempts to use FU when none available
system.cpu.iq.fu_full::FloatMult                    0                       # attempts to use FU when none available
system.cpu.iq.fu_full::FloatMultAcc                 0                       # attempts to use FU when none available
system.cpu.iq.fu_full::FloatDiv                     0                       # attempts to use FU when none available
system.cpu.iq.fu_full::FloatMisc                    0                       # attempts to use FU when none available
system.cpu.iq.fu_full::FloatSqrt                    0                       # attempts to use FU when none available
system.cpu.iq.fu_full::SimdAdd                      0                       # attempts to use FU when none available
system.cpu.iq.fu_full::SimdAddAcc                   0                       # attempts to use FU when none available
system.cpu.iq.fu_full::SimdAlu                      0                       # attempts to use FU when none available
system.cpu.iq.fu_full::SimdCmp                      0                       # attempts to use FU when none available
system.cpu.iq.fu_full::SimdCvt                      0                       # attempts to use FU when none available
system.cpu.iq.fu_full::SimdMisc                     0                       # attempts to use FU when none available
system.cpu.iq.fu_full::SimdMult                     0                       # attempts to use FU when none available
system.cpu.iq.fu_full::SimdMultAcc                  0                       # attempts to use FU when none available
system.cpu.iq.fu_full::SimdShift                    0                       # attempts to use FU when none available
system.cpu.iq.fu_full::SimdShiftAcc                 0                       # attempts to use FU when none available
system.cpu.iq.fu_full::SimdDiv                      0                       # attempts to use FU when none available
system.cpu.iq.fu_full::SimdSqrt                     0                       # attempts to use FU when none available
system.cpu.iq.fu_full::SimdFloatAdd                 0                       # attempts to use FU when none available
system.cpu.iq.fu_full::SimdFloatAlu                 0                       # attempts to use FU when none available
system.cpu.iq.fu_full::SimdFloatCmp                 0                       # attempts to use FU when none available
system.cpu.iq.fu_full::SimdFloatCvt                 0                       # attempts to use FU when none available
system.cpu.iq.fu_full::SimdFloatDiv                 0                       # attempts to use FU when none available
system.cpu.iq.fu_full::SimdFloatMisc                0                       # attempts to use FU when none available
system.cpu.iq.fu_full::SimdFloatMult                0                       # attempts to use FU when none available
system.cpu.iq.fu_full::SimdFloatMultAcc             0                       # attempts to use FU when none available
system.cpu.iq.fu_full::SimdFloatSqrt                0                       # attempts to use FU when none available
system.cpu.iq.fu_full::SimdReduceAdd                0                       # attempts to use FU when none available
system.cpu.iq.fu_full::SimdReduceAlu                0                       # attempts to use FU when none available
system.cpu.iq.fu_full::SimdReduceCmp                0                       # attempts to use FU when none available
system.cpu.iq.fu_full::SimdFloatReduceAdd            0                       # attempts to use FU when none available
system.cpu.iq.fu_full::SimdFloatReduceCmp            0                       # attempts to use FU when none available
system.cpu.iq.fu_full::SimdAes                      0                       # attempts to use FU when none available
system.cpu.iq.fu_full::SimdAesMix                   0                       # attempts to use FU when none available
system.cpu.iq.fu_full::SimdSha1Hash                 0                       # attempts to use FU when none available
system.cpu.iq.fu_full::SimdSha1Hash2                0                       # attempts to use FU when none available
system.cpu.iq.fu_full::SimdSha256Hash               0                       # attempts to use FU when none available
system.cpu.iq.fu_full::SimdSha256Hash2              0                       # attempts to use FU when none available
system.cpu.iq.fu_full::SimdShaSigma2                0                       # attempts to use FU when none available
system.cpu.iq.fu_full::SimdShaSigma3                0                       # attempts to use FU when none available
system.cpu.iq.fu_full::SimdPredAlu                  0                       # attempts to use FU when none available
system.cpu.iq.fu_full::MemRead                      0                       # attempts to use FU when none available
system.cpu.iq.fu_full::MemWrite                     0                       # attempts to use FU when none available
system.cpu.iq.fu_full::FloatMemRead                 0                       # attempts to use FU when none available
system.cpu.iq.fu_full::FloatMemWrite                0                       # attempts to use FU when none available
system.cpu.iq.fu_full::IprAccess                    0                       # attempts to use FU when none available
system.cpu.iq.fu_full::InstPrefetch                 0                       # attempts to use FU when none available
system.cpu.iq.int_alu_accesses                4074211                       # Number of integer alu accesses
system.cpu.iq.int_inst_queue_reads           10809922                       # Number of integer instruction queue reads
system.cpu.iq.int_inst_queue_wakeup_accesses      4047466                       # Number of integer instruction queue wakeup accesses
system.cpu.iq.int_inst_queue_writes           5261756                       # Number of integer instruction queue writes
system.cpu.iq.iqInstsAdded                    4509460                       # Number of instructions added to the IQ (excludes non-spec)
system.cpu.iq.iqInstsIssued                   4193646                       # Number of instructions issued
system.cpu.iq.iqNonSpecInstsAdded                1120                       # Number of non-speculative instructions added to the IQ
system.cpu.iq.iqSquashedInstsExamined          884338                       # Number of squashed instructions iterated over during squash; mainly for profiling
system.cpu.iq.iqSquashedInstsIssued             18379                       # Number of squashed instructions issued
system.cpu.iq.iqSquashedNonSpecRemoved            378                       # Number of squashed non-spec instructions that were removed
system.cpu.iq.iqSquashedOperandsExamined      1309509                       # Number of squashed operands that are examined and possibly removed from graph
system.cpu.iq.issued_per_cycle::samples       2591177                       # Number of insts issued each cycle
system.cpu.iq.issued_per_cycle::mean         1.618433                       # Number of insts issued each cycle
system.cpu.iq.issued_per_cycle::stdev        1.669433                       # Number of insts issued each cycle
system.cpu.iq.issued_per_cycle::underflows            0      0.00%      0.00% # Number of insts issued each cycle
system.cpu.iq.issued_per_cycle::0             1174078     45.31%     45.31% # Number of insts issued each cycle
system.cpu.iq.issued_per_cycle::1              175416      6.77%     52.08% # Number of insts issued each cycle
system.cpu.iq.issued_per_cycle::2              302964     11.69%     63.77% # Number of insts issued each cycle
system.cpu.iq.issued_per_cycle::3              342574     13.22%     76.99% # Number of insts issued each cycle
system.cpu.iq.issued_per_cycle::4              596145     23.01%    100.00% # Number of insts issued each cycle
system.cpu.iq.issued_per_cycle::overflows            0      0.00%    100.00% # Number of insts issued each cycle
system.cpu.iq.issued_per_cycle::min_value            0                       # Number of insts issued each cycle
system.cpu.iq.issued_per_cycle::max_value            4                       # Number of insts issued each cycle
system.cpu.iq.issued_per_cycle::total         2591177                       # Number of insts issued each cycle
system.cpu.iq.rate                           1.524076                       # Inst issue rate
system.cpu.iq.vec_alu_accesses                      0                       # Number of vector alu accesses
system.cpu.iq.vec_inst_queue_reads                  0                       # Number of vector instruction queue reads
system.cpu.iq.vec_inst_queue_wakeup_accesses            0                       # Number of vector instruction queue wakeup accesses
system.cpu.iq.vec_inst_queue_writes                 0                       # Number of vector instruction queue writes
system.cpu.itb.rdAccesses                           0                       # TLB accesses on read requests
system.cpu.itb.rdMisses                             0                       # TLB misses on read requests
system.cpu.itb.wrAccesses                      245342                       # TLB accesses on write requests
system.cpu.itb.wrMisses                           360                       # TLB misses on write requests
system.cpu.memDep0.conflictingLoads             13067                       # Number of conflicting loads.
system.cpu.memDep0.conflictingStores             4317                       # Number of conflicting stores.
system.cpu.memDep0.insertedLoads               612102                       # Number of loads inserted to the mem dependence unit.
system.cpu.memDep0.insertedStores              204609                       # Number of stores inserted to the mem dependence unit.
system.cpu.misc_regfile_reads                 1569772                       # number of misc regfile reads
system.cpu.misc_regfile_writes                    684                       # number of misc regfile writes
system.cpu.numCycles                          2751599                       # number of cpu cycles simulated
system.cpu.numWorkItemsCompleted                    0                       # number of work items this cpu completed
system.cpu.numWorkItemsStarted                      0                       # number of work items this cpu started
system.cpu.process.numSyscalls                     57                       # Number of system calls
system.cpu.rename.BlockCycles                  837776                       # Number of cycles rename is blocking
system.cpu.rename.CommittedMaps               4961759                       # Number of HB maps that are committed
system.cpu.rename.FullRegisterEvents              159                       # Number of times there has been no free registers
system.cpu.rename.IQFullEvents                  46707                       # Number of times rename has blocked due to IQ full
system.cpu.rename.IdleCycles                   351591                       # Number of cycles rename is idle
system.cpu.rename.LQFullEvents                  15260                       # Number of times rename has blocked due to LQ full
system.cpu.rename.ROBFullEvents                  4520                       # Number of times rename has blocked due to ROB full
system.cpu.rename.RenameLookups              12153524                       # Number of register rename lookups that rename has made
system.cpu.rename.RenamedInsts                4651790                       # Number of instructions processed by rename
system.cpu.rename.RenamedOperands             6352500                       # Number of destination operands rename has renamed
system.cpu.rename.RunCycles                   1179979                       # Number of cycles rename is running
system.cpu.rename.SQFullEvents                  78099                       # Number of times rename has blocked due to SQ full
system.cpu.rename.SquashCycles                  24391                       # Number of cycles rename is squashing
system.cpu.rename.UnblockCycles                176889                       # Number of cycles rename is unblocking
system.cpu.rename.UndoneMaps                  1390718                       # Number of HB maps that are undone due to squashing
system.cpu.rename.fp_rename_lookups            158925                       # Number of floating rename lookups
system.cpu.rename.int_rename_lookups          7382118                       # Number of integer rename lookups
system.cpu.rename.serializeStallCycles          20551                       # count of cycles rename stalled for serializing inst
system.cpu.rename.serializingInsts                881                       # count of serializing insts renamed
system.cpu.rename.skidInsts                    205792                       # count of insts added to the skid buffer
system.cpu.rename.tempSerializingInsts            936                       # count of temporary serializing insts renamed
system.cpu.rob.rob_reads                      6261085                       # The number of ROB reads
system.cpu.rob.rob_writes                     9262881                       # The number of ROB writes
system.cpu.timesIdled                            1637                       # Number of times that the entire CPU went into an idle state and unscheduled itself
system.l2bus.snoop_filter.hit_multi_requests           12                       # Number of requests hitting in the snoop filter with multiple (>1) holders of the requested data.
system.l2bus.snoop_filter.hit_multi_snoops            1                       # Number of snoops hitting in the snoop filter with multiple (>1) holders of the requested data.
system.l2bus.snoop_filter.hit_single_requests        18487                       # Number of requests hitting in the snoop filter with a single holder of the requested data.
system.l2bus.snoop_filter.hit_single_snoops          434                       # Number of snoops hitting in the snoop filter with a single holder of the requested data.
system.l2bus.snoop_filter.tot_requests          38254                       # Total number of requests made to the snoop filter.
system.l2bus.snoop_filter.tot_snoops              435                       # Total number of snoops made to the snoop filter.
system.l2cache.prefetcher.num_hwpf_issued          634                       # number of hwpf issued
system.l2cache.prefetcher.pfBufferHit               0                       # number of redundant prefetches already in prefetch queue
system.l2cache.prefetcher.pfIdentified            634                       # number of prefetch candidates identified
system.l2cache.prefetcher.pfInCache                 0                       # number of redundant prefetches already in cache/mshr dropped
system.l2cache.prefetcher.pfRemovedFull             0                       # number of prefetches dropped due to prefetch queue size
system.l2cache.prefetcher.pfSpanPage              122                       # number of prefetches that crossed the page
system.membus.snoop_filter.hit_multi_requests            0                       # Number of requests hitting in the snoop filter with multiple (>1) holders of the requested data.
system.membus.snoop_filter.hit_multi_snoops            0                       # Number of snoops hitting in the snoop filter with multiple (>1) holders of the requested data.
system.membus.snoop_filter.hit_single_requests         9347                       # Number of requests hitting in the snoop filter with a single holder of the requested data.
system.membus.snoop_filter.hit_single_snoops            0                       # Number of snoops hitting in the snoop filter with a single holder of the requested data.
system.membus.snoop_filter.tot_requests         22813                       # Total number of requests made to the snoop filter.
system.membus.snoop_filter.tot_snoops               0                       # Total number of snoops made to the snoop filter.
system.membus.pwrStateResidencyTicks::UNDEFINED   1100639200                       # Cumulative time (in ticks) in various power states
system.membus.trans_dist::ReadResp              12113                       # Transaction distribution
system.membus.trans_dist::WritebackDirty         1349                       # Transaction distribution
system.membus.trans_dist::CleanEvict             7998                       # Transaction distribution
system.membus.trans_dist::ReadExReq              1353                       # Transaction distribution
system.membus.trans_dist::ReadExResp             1353                       # Transaction distribution
system.membus.trans_dist::ReadSharedReq         12113                       # Transaction distribution
system.membus.pkt_count_system.l2cache.mem_side::system.mem_ctrl.port        36279                       # Packet count per connected master and slave (bytes)
system.membus.pkt_count_system.l2cache.mem_side::total        36279                       # Packet count per connected master and slave (bytes)
system.membus.pkt_count::total                  36279                       # Packet count per connected master and slave (bytes)
system.membus.pkt_size_system.l2cache.mem_side::system.mem_ctrl.port       948160                       # Cumulative packet size per connected master and slave (bytes)
system.membus.pkt_size_system.l2cache.mem_side::total       948160                       # Cumulative packet size per connected master and slave (bytes)
system.membus.pkt_size::total                  948160                       # Cumulative packet size per connected master and slave (bytes)
system.membus.snoops                                0                       # Total snoops (count)
system.membus.snoopTraffic                          0                       # Total snoop traffic (bytes)
system.membus.snoop_fanout::samples             13466                       # Request fanout histogram
system.membus.snoop_fanout::mean                    0                       # Request fanout histogram
system.membus.snoop_fanout::stdev                   0                       # Request fanout histogram
system.membus.snoop_fanout::underflows              0      0.00%      0.00% # Request fanout histogram
system.membus.snoop_fanout::0                   13466    100.00%    100.00% # Request fanout histogram
system.membus.snoop_fanout::1                       0      0.00%    100.00% # Request fanout histogram
system.membus.snoop_fanout::overflows               0      0.00%    100.00% # Request fanout histogram
system.membus.snoop_fanout::min_value               0                       # Request fanout histogram
system.membus.snoop_fanout::max_value               0                       # Request fanout histogram
system.membus.snoop_fanout::total               13466                       # Request fanout histogram
system.membus.reqLayer2.occupancy            11308585                       # Layer occupancy (ticks)
system.membus.reqLayer2.utilization               1.0                       # Layer utilization (%)
system.membus.respLayer0.occupancy           29225215                       # Layer occupancy (ticks)
system.membus.respLayer0.utilization              2.7                       # Layer utilization (%)
system.l2bus.pwrStateResidencyTicks::UNDEFINED   1100639200                       # Cumulative time (in ticks) in various power states
system.l2bus.trans_dist::ReadResp               17698                       # Transaction distribution
system.l2bus.trans_dist::WritebackDirty          4112                       # Transaction distribution
system.l2bus.trans_dist::CleanEvict             23807                       # Transaction distribution
system.l2bus.trans_dist::HardPFReq                890                       # Transaction distribution
system.l2bus.trans_dist::UpgradeReq                 2                       # Transaction distribution
system.l2bus.trans_dist::UpgradeResp                2                       # Transaction distribution
system.l2bus.trans_dist::ReadExReq               2069                       # Transaction distribution
system.l2bus.trans_dist::ReadExResp              2069                       # Transaction distribution
system.l2bus.trans_dist::ReadSharedReq          17698                       # Transaction distribution
system.l2bus.pkt_count_system.cpu.icache.mem_side::system.l2cache.cpu_side         8648                       # Packet count per connected master and slave (bytes)
system.l2bus.pkt_count_system.cpu.dcache.mem_side::system.l2cache.cpu_side        49371                       # Packet count per connected master and slave (bytes)
system.l2bus.pkt_count::total                   58019                       # Packet count per connected master and slave (bytes)
system.l2bus.pkt_size_system.cpu.icache.mem_side::system.l2cache.cpu_side       189888                       # Cumulative packet size per connected master and slave (bytes)
system.l2bus.pkt_size_system.cpu.dcache.mem_side::system.l2cache.cpu_side      1251776                       # Cumulative packet size per connected master and slave (bytes)
system.l2bus.pkt_size::total                  1441664                       # Cumulative packet size per connected master and slave (bytes)
system.l2bus.snoops                             10328                       # Total snoops (count)
system.l2bus.snoopTraffic                       86592                       # Total snoop traffic (bytes)
system.l2bus.snoop_fanout::samples              30093                       # Request fanout histogram
system.l2bus.snoop_fanout::mean              0.014954                       # Request fanout histogram
system.l2bus.snoop_fanout::stdev             0.121643                       # Request fanout histogram
system.l2bus.snoop_fanout::underflows               0      0.00%      0.00% # Request fanout histogram
system.l2bus.snoop_fanout::0                    29644     98.51%     98.51% # Request fanout histogram
system.l2bus.snoop_fanout::1                      448      1.49%    100.00% # Request fanout histogram
system.l2bus.snoop_fanout::2                        1      0.00%    100.00% # Request fanout histogram
system.l2bus.snoop_fanout::overflows                0      0.00%    100.00% # Request fanout histogram
system.l2bus.snoop_fanout::min_value                0                       # Request fanout histogram
system.l2bus.snoop_fanout::max_value                2                       # Request fanout histogram
system.l2bus.snoop_fanout::total                30093                       # Request fanout histogram
system.l2bus.respLayer1.occupancy            20158397                       # Layer occupancy (ticks)
system.l2bus.respLayer1.utilization               1.8                       # Layer utilization (%)
system.l2bus.reqLayer0.occupancy             18946249                       # Layer occupancy (ticks)
system.l2bus.reqLayer0.utilization                1.7                       # Layer utilization (%)
system.l2bus.respLayer0.occupancy             3564399                       # Layer occupancy (ticks)
system.l2bus.respLayer0.utilization               0.3                       # Layer utilization (%)
system.clk_domain.clock                           400                       # Clock period in ticks
system.clk_domain.voltage_domain.voltage            1                       # Voltage in Volts
system.cpu.pwrStateResidencyTicks::ON      1100639200                       # Cumulative time (in ticks) in various power states
system.cpu.icache.pwrStateResidencyTicks::UNDEFINED   1100639200                       # Cumulative time (in ticks) in various power states
system.cpu.icache.demand_hits::.cpu.inst       241597                       # number of demand (read+write) hits
system.cpu.icache.demand_hits::total           241597                       # number of demand (read+write) hits
system.cpu.icache.overall_hits::.cpu.inst       241597                       # number of overall hits
system.cpu.icache.overall_hits::total          241597                       # number of overall hits
system.cpu.icache.demand_misses::.cpu.inst         3641                       # number of demand (read+write) misses
system.cpu.icache.demand_misses::total           3641                       # number of demand (read+write) misses
system.cpu.icache.overall_misses::.cpu.inst         3641                       # number of overall misses
system.cpu.icache.overall_misses::total          3641                       # number of overall misses
system.cpu.icache.demand_miss_latency::.cpu.inst    176881199                       # number of demand (read+write) miss cycles
system.cpu.icache.demand_miss_latency::total    176881199                       # number of demand (read+write) miss cycles
system.cpu.icache.overall_miss_latency::.cpu.inst    176881199                       # number of overall miss cycles
system.cpu.icache.overall_miss_latency::total    176881199                       # number of overall miss cycles
system.cpu.icache.demand_accesses::.cpu.inst       245238                       # number of demand (read+write) accesses
system.cpu.icache.demand_accesses::total       245238                       # number of demand (read+write) accesses
system.cpu.icache.overall_accesses::.cpu.inst       245238                       # number of overall (read+write) accesses
system.cpu.icache.overall_accesses::total       245238                       # number of overall (read+write) accesses
system.cpu.icache.demand_miss_rate::.cpu.inst     0.014847                       # miss rate for demand accesses
system.cpu.icache.demand_miss_rate::total     0.014847                       # miss rate for demand accesses
system.cpu.icache.overall_miss_rate::.cpu.inst     0.014847                       # miss rate for overall accesses
system.cpu.icache.overall_miss_rate::total     0.014847                       # miss rate for overall accesses
system.cpu.icache.demand_avg_miss_latency::.cpu.inst 48580.389728                       # average overall miss latency
system.cpu.icache.demand_avg_miss_latency::total 48580.389728                       # average overall miss latency
system.cpu.icache.overall_avg_miss_latency::.cpu.inst 48580.389728                       # average overall miss latency
system.cpu.icache.overall_avg_miss_latency::total 48580.389728                       # average overall miss latency
system.cpu.icache.blocked_cycles::no_mshrs           97                       # number of cycles access was blocked
system.cpu.icache.blocked_cycles::no_targets            0                       # number of cycles access was blocked
system.cpu.icache.blocked::no_mshrs                 3                       # number of cycles access was blocked
system.cpu.icache.blocked::no_targets               0                       # number of cycles access was blocked
system.cpu.icache.avg_blocked_cycles::no_mshrs    32.333333                       # average number of cycles each access was blocked
system.cpu.icache.avg_blocked_cycles::no_targets          nan                       # average number of cycles each access was blocked
system.cpu.icache.writebacks::.writebacks            1                       # number of writebacks
system.cpu.icache.writebacks::total                 1                       # number of writebacks
system.cpu.icache.demand_mshr_hits::.cpu.inst          671                       # number of demand (read+write) MSHR hits
system.cpu.icache.demand_mshr_hits::total          671                       # number of demand (read+write) MSHR hits
system.cpu.icache.overall_mshr_hits::.cpu.inst          671                       # number of overall MSHR hits
system.cpu.icache.overall_mshr_hits::total          671                       # number of overall MSHR hits
system.cpu.icache.demand_mshr_misses::.cpu.inst         2970                       # number of demand (read+write) MSHR misses
system.cpu.icache.demand_mshr_misses::total         2970                       # number of demand (read+write) MSHR misses
system.cpu.icache.overall_mshr_misses::.cpu.inst         2970                       # number of overall MSHR misses
system.cpu.icache.overall_mshr_misses::total         2970                       # number of overall MSHR misses
system.cpu.icache.demand_mshr_miss_latency::.cpu.inst    144279999                       # number of demand (read+write) MSHR miss cycles
system.cpu.icache.demand_mshr_miss_latency::total    144279999                       # number of demand (read+write) MSHR miss cycles
system.cpu.icache.overall_mshr_miss_latency::.cpu.inst    144279999                       # number of overall MSHR miss cycles
system.cpu.icache.overall_mshr_miss_latency::total    144279999                       # number of overall MSHR miss cycles
system.cpu.icache.demand_mshr_miss_rate::.cpu.inst     0.012111                       # mshr miss rate for demand accesses
system.cpu.icache.demand_mshr_miss_rate::total     0.012111                       # mshr miss rate for demand accesses
system.cpu.icache.overall_mshr_miss_rate::.cpu.inst     0.012111                       # mshr miss rate for overall accesses
system.cpu.icache.overall_mshr_miss_rate::total     0.012111                       # mshr miss rate for overall accesses
system.cpu.icache.demand_avg_mshr_miss_latency::.cpu.inst 48579.124242                       # average overall mshr miss latency
system.cpu.icache.demand_avg_mshr_miss_latency::total 48579.124242                       # average overall mshr miss latency
system.cpu.icache.overall_avg_mshr_miss_latency::.cpu.inst 48579.124242                       # average overall mshr miss latency
system.cpu.icache.overall_avg_mshr_miss_latency::total 48579.124242                       # average overall mshr miss latency
system.cpu.icache.replacements                   2712                       # number of replacements
system.cpu.icache.ReadReq_hits::.cpu.inst       241597                       # number of ReadReq hits
system.cpu.icache.ReadReq_hits::total          241597                       # number of ReadReq hits
system.cpu.icache.ReadReq_misses::.cpu.inst         3641                       # number of ReadReq misses
system.cpu.icache.ReadReq_misses::total          3641                       # number of ReadReq misses
system.cpu.icache.ReadReq_miss_latency::.cpu.inst    176881199                       # number of ReadReq miss cycles
system.cpu.icache.ReadReq_miss_latency::total    176881199                       # number of ReadReq miss cycles
system.cpu.icache.ReadReq_accesses::.cpu.inst       245238                       # number of ReadReq accesses(hits+misses)
system.cpu.icache.ReadReq_accesses::total       245238                       # number of ReadReq accesses(hits+misses)
system.cpu.icache.ReadReq_miss_rate::.cpu.inst     0.014847                       # miss rate for ReadReq accesses
system.cpu.icache.ReadReq_miss_rate::total     0.014847                       # miss rate for ReadReq accesses
system.cpu.icache.ReadReq_avg_miss_latency::.cpu.inst 48580.389728                       # average ReadReq miss latency
system.cpu.icache.ReadReq_avg_miss_latency::total 48580.389728                       # average ReadReq miss latency
system.cpu.icache.ReadReq_mshr_hits::.cpu.inst          671                       # number of ReadReq MSHR hits
system.cpu.icache.ReadReq_mshr_hits::total          671                       # number of ReadReq MSHR hits
system.cpu.icache.ReadReq_mshr_misses::.cpu.inst         2970                       # number of ReadReq MSHR misses
system.cpu.icache.ReadReq_mshr_misses::total         2970                       # number of ReadReq MSHR misses
system.cpu.icache.ReadReq_mshr_miss_latency::.cpu.inst    144279999                       # number of ReadReq MSHR miss cycles
system.cpu.icache.ReadReq_mshr_miss_latency::total    144279999                       # number of ReadReq MSHR miss cycles
system.cpu.icache.ReadReq_mshr_miss_rate::.cpu.inst     0.012111                       # mshr miss rate for ReadReq accesses
system.cpu.icache.ReadReq_mshr_miss_rate::total     0.012111                       # mshr miss rate for ReadReq accesses
system.cpu.icache.ReadReq_avg_mshr_miss_latency::.cpu.inst 48579.124242                       # average ReadReq mshr miss latency
system.cpu.icache.ReadReq_avg_mshr_miss_latency::total 48579.124242                       # average ReadReq mshr miss latency
system.cpu.icache.prefetcher.pwrStateResidencyTicks::UNDEFINED   1100639200                       # Cumulative time (in ticks) in various power states
system.cpu.icache.tags.pwrStateResidencyTicks::UNDEFINED   1100639200                       # Cumulative time (in ticks) in various power states
system.cpu.icache.tags.tagsinuse           253.450338                       # Cycle average of tags in use
system.cpu.icache.tags.total_refs              233092                       # Total number of references to valid blocks.
system.cpu.icache.tags.sampled_refs              2714                       # Sample count of references to valid blocks.
system.cpu.icache.tags.avg_refs             85.885041                       # Average number of references to valid blocks.
system.cpu.icache.tags.warmup_cycle             66400                       # Cycle when the warmup percentage was hit.
system.cpu.icache.tags.occ_blocks::.cpu.inst   253.450338                       # Average occupied blocks per requestor
system.cpu.icache.tags.occ_percent::.cpu.inst     0.990040                       # Average percentage of cache occupancy
system.cpu.icache.tags.occ_percent::total     0.990040                       # Average percentage of cache occupancy
system.cpu.icache.tags.occ_task_id_blocks::1024          256                       # Occupied blocks per task id
system.cpu.icache.tags.age_task_id_blocks_1024::0          101                       # Occupied blocks per task id
system.cpu.icache.tags.age_task_id_blocks_1024::1          130                       # Occupied blocks per task id
system.cpu.icache.tags.age_task_id_blocks_1024::2           25                       # Occupied blocks per task id
system.cpu.icache.tags.occ_task_id_percent::1024            1                       # Percentage of cache occupancy per task id
system.cpu.icache.tags.tag_accesses            493446                       # Number of tag accesses
system.cpu.icache.tags.data_accesses           493446                       # Number of data accesses
system.cpu.dtb.walker.pwrStateResidencyTicks::UNDEFINED   1100639200                       # Cumulative time (in ticks) in various power states
system.cpu.interrupts.clk_domain.clock           6400                       # Clock period in ticks
system.cpu.itb.walker.pwrStateResidencyTicks::UNDEFINED   1100639200                       # Cumulative time (in ticks) in various power states
system.cpu.dcache.pwrStateResidencyTicks::UNDEFINED   1100639200                       # Cumulative time (in ticks) in various power states
system.cpu.dcache.demand_hits::.cpu.data       678930                       # number of demand (read+write) hits
system.cpu.dcache.demand_hits::total           678930                       # number of demand (read+write) hits
system.cpu.dcache.overall_hits::.cpu.data       678930                       # number of overall hits
system.cpu.dcache.overall_hits::total          678930                       # number of overall hits
system.cpu.dcache.demand_misses::.cpu.data        34355                       # number of demand (read+write) misses
system.cpu.dcache.demand_misses::total          34355                       # number of demand (read+write) misses
system.cpu.dcache.overall_misses::.cpu.data        34355                       # number of overall misses
system.cpu.dcache.overall_misses::total         34355                       # number of overall misses
system.cpu.dcache.demand_miss_latency::.cpu.data   1670975999                       # number of demand (read+write) miss cycles
system.cpu.dcache.demand_miss_latency::total   1670975999                       # number of demand (read+write) miss cycles
system.cpu.dcache.overall_miss_latency::.cpu.data   1670975999                       # number of overall miss cycles
system.cpu.dcache.overall_miss_latency::total   1670975999                       # number of overall miss cycles
system.cpu.dcache.demand_accesses::.cpu.data       713285                       # number of demand (read+write) accesses
system.cpu.dcache.demand_accesses::total       713285                       # number of demand (read+write) accesses
system.cpu.dcache.overall_accesses::.cpu.data       713285                       # number of overall (read+write) accesses
system.cpu.dcache.overall_accesses::total       713285                       # number of overall (read+write) accesses
system.cpu.dcache.demand_miss_rate::.cpu.data     0.048164                       # miss rate for demand accesses
system.cpu.dcache.demand_miss_rate::total     0.048164                       # miss rate for demand accesses
system.cpu.dcache.overall_miss_rate::.cpu.data     0.048164                       # miss rate for overall accesses
system.cpu.dcache.overall_miss_rate::total     0.048164                       # miss rate for overall accesses
system.cpu.dcache.demand_avg_miss_latency::.cpu.data 48638.509649                       # average overall miss latency
system.cpu.dcache.demand_avg_miss_latency::total 48638.509649                       # average overall miss latency
system.cpu.dcache.overall_avg_miss_latency::.cpu.data 48638.509649                       # average overall miss latency
system.cpu.dcache.overall_avg_miss_latency::total 48638.509649                       # average overall miss latency
system.cpu.dcache.blocked_cycles::no_mshrs        27693                       # number of cycles access was blocked
system.cpu.dcache.blocked_cycles::no_targets          175                       # number of cycles access was blocked
system.cpu.dcache.blocked::no_mshrs               709                       # number of cycles access was blocked
system.cpu.dcache.blocked::no_targets               3                       # number of cycles access was blocked
system.cpu.dcache.avg_blocked_cycles::no_mshrs    39.059238                       # average number of cycles each access was blocked
system.cpu.dcache.avg_blocked_cycles::no_targets    58.333333                       # average number of cycles each access was blocked
system.cpu.dcache.unused_prefetches              1717                       # number of HardPF blocks evicted w/o reference
system.cpu.dcache.writebacks::.writebacks         2762                       # number of writebacks
system.cpu.dcache.writebacks::total              2762                       # number of writebacks
system.cpu.dcache.demand_mshr_hits::.cpu.data        21921                       # number of demand (read+write) MSHR hits
system.cpu.dcache.demand_mshr_hits::total        21921                       # number of demand (read+write) MSHR hits
system.cpu.dcache.overall_mshr_hits::.cpu.data        21921                       # number of overall MSHR hits
system.cpu.dcache.overall_mshr_hits::total        21921                       # number of overall MSHR hits
system.cpu.dcache.demand_mshr_misses::.cpu.data        12434                       # number of demand (read+write) MSHR misses
system.cpu.dcache.demand_mshr_misses::total        12434                       # number of demand (read+write) MSHR misses
system.cpu.dcache.overall_mshr_misses::.cpu.data        12434                       # number of overall MSHR misses
system.cpu.dcache.overall_mshr_misses::.cpu.dcache.prefetcher         4365                       # number of overall MSHR misses
system.cpu.dcache.overall_mshr_misses::total        16799                       # number of overall MSHR misses
system.cpu.dcache.demand_mshr_miss_latency::.cpu.data    572683999                       # number of demand (read+write) MSHR miss cycles
system.cpu.dcache.demand_mshr_miss_latency::total    572683999                       # number of demand (read+write) MSHR miss cycles
system.cpu.dcache.overall_mshr_miss_latency::.cpu.data    572683999                       # number of overall MSHR miss cycles
system.cpu.dcache.overall_mshr_miss_latency::.cpu.dcache.prefetcher    251358125                       # number of overall MSHR miss cycles
system.cpu.dcache.overall_mshr_miss_latency::total    824042124                       # number of overall MSHR miss cycles
system.cpu.dcache.demand_mshr_miss_rate::.cpu.data     0.017432                       # mshr miss rate for demand accesses
system.cpu.dcache.demand_mshr_miss_rate::total     0.017432                       # mshr miss rate for demand accesses
system.cpu.dcache.overall_mshr_miss_rate::.cpu.data     0.017432                       # mshr miss rate for overall accesses
system.cpu.dcache.overall_mshr_miss_rate::.cpu.dcache.prefetcher          inf                       # mshr miss rate for overall accesses
system.cpu.dcache.overall_mshr_miss_rate::total     0.023552                       # mshr miss rate for overall accesses
system.cpu.dcache.demand_avg_mshr_miss_latency::.cpu.data 46057.905662                       # average overall mshr miss latency
system.cpu.dcache.demand_avg_mshr_miss_latency::total 46057.905662                       # average overall mshr miss latency
system.cpu.dcache.overall_avg_mshr_miss_latency::.cpu.data 46057.905662                       # average overall mshr miss latency
system.cpu.dcache.overall_avg_mshr_miss_latency::.cpu.dcache.prefetcher 57584.908362                       # average overall mshr miss latency
system.cpu.dcache.overall_avg_mshr_miss_latency::total 49053.046253                       # average overall mshr miss latency
system.cpu.dcache.replacements                  15773                       # number of replacements
system.cpu.dcache.ReadReq_hits::.cpu.data       506205                       # number of ReadReq hits
system.cpu.dcache.ReadReq_hits::total          506205                       # number of ReadReq hits
system.cpu.dcache.ReadReq_misses::.cpu.data        32241                       # number of ReadReq misses
system.cpu.dcache.ReadReq_misses::total         32241                       # number of ReadReq misses
system.cpu.dcache.ReadReq_miss_latency::.cpu.data   1564058000                       # number of ReadReq miss cycles
system.cpu.dcache.ReadReq_miss_latency::total   1564058000                       # number of ReadReq miss cycles
system.cpu.dcache.ReadReq_accesses::.cpu.data       538446                       # number of ReadReq accesses(hits+misses)
system.cpu.dcache.ReadReq_accesses::total       538446                       # number of ReadReq accesses(hits+misses)
system.cpu.dcache.ReadReq_miss_rate::.cpu.data     0.059878                       # miss rate for ReadReq accesses
system.cpu.dcache.ReadReq_miss_rate::total     0.059878                       # miss rate for ReadReq accesses
system.cpu.dcache.ReadReq_avg_miss_latency::.cpu.data 48511.460563                       # average ReadReq miss latency
system.cpu.dcache.ReadReq_avg_miss_latency::total 48511.460563                       # average ReadReq miss latency
system.cpu.dcache.ReadReq_mshr_hits::.cpu.data        21878                       # number of ReadReq MSHR hits
system.cpu.dcache.ReadReq_mshr_hits::total        21878                       # number of ReadReq MSHR hits
system.cpu.dcache.ReadReq_mshr_misses::.cpu.data        10363                       # number of ReadReq MSHR misses
system.cpu.dcache.ReadReq_mshr_misses::total        10363                       # number of ReadReq MSHR misses
system.cpu.dcache.ReadReq_mshr_miss_latency::.cpu.data    469174000                       # number of ReadReq MSHR miss cycles
system.cpu.dcache.ReadReq_mshr_miss_latency::total    469174000                       # number of ReadReq MSHR miss cycles
system.cpu.dcache.ReadReq_mshr_miss_rate::.cpu.data     0.019246                       # mshr miss rate for ReadReq accesses
system.cpu.dcache.ReadReq_mshr_miss_rate::total     0.019246                       # mshr miss rate for ReadReq accesses
system.cpu.dcache.ReadReq_avg_mshr_miss_latency::.cpu.data 45273.955418                       # average ReadReq mshr miss latency
system.cpu.dcache.ReadReq_avg_mshr_miss_latency::total 45273.955418                       # average ReadReq mshr miss latency
system.cpu.dcache.WriteReq_hits::.cpu.data       172725                       # number of WriteReq hits
system.cpu.dcache.WriteReq_hits::total         172725                       # number of WriteReq hits
system.cpu.dcache.WriteReq_misses::.cpu.data         2114                       # number of WriteReq misses
system.cpu.dcache.WriteReq_misses::total         2114                       # number of WriteReq misses
system.cpu.dcache.WriteReq_miss_latency::.cpu.data    106917999                       # number of WriteReq miss cycles
system.cpu.dcache.WriteReq_miss_latency::total    106917999                       # number of WriteReq miss cycles
system.cpu.dcache.WriteReq_accesses::.cpu.data       174839                       # number of WriteReq accesses(hits+misses)
system.cpu.dcache.WriteReq_accesses::total       174839                       # number of WriteReq accesses(hits+misses)
system.cpu.dcache.WriteReq_miss_rate::.cpu.data     0.012091                       # miss rate for WriteReq accesses
system.cpu.dcache.WriteReq_miss_rate::total     0.012091                       # miss rate for WriteReq accesses
system.cpu.dcache.WriteReq_avg_miss_latency::.cpu.data 50576.158467                       # average WriteReq miss latency
system.cpu.dcache.WriteReq_avg_miss_latency::total 50576.158467                       # average WriteReq miss latency
system.cpu.dcache.WriteReq_mshr_hits::.cpu.data           43                       # number of WriteReq MSHR hits
[...]
system.l2cache.demand_mshr_misses::.cpu.data          148                       # number of demand (read+write) MSHR misses
system.l2cache.demand_mshr_misses::.cpu.dcache.prefetcher           24                       # number of demand (read+write) MSHR misses
system.l2cache.demand_mshr_misses::total          428                       # number of demand (read+write) MSHR misses
system.l2cache.overall_mshr_misses::.cpu.inst          256                       # number of overall MSHR misses
system.l2cache.overall_mshr_misses::.cpu.data          148                       # number of overall MSHR misses
system.l2cache.overall_mshr_misses::.cpu.dcache.prefetcher           24                       # number of overall MSHR misses
system.l2cache.overall_mshr_misses::total          428                       # number of overall MSHR misses
system.l2cache.demand_mshr_miss_latency::.cpu.inst     15130400                       # number of demand (read+write) MSHR miss cycles
system.l2cache.demand_mshr_miss_latency::.cpu.data      8870800                       # number of demand (read+write) MSHR miss cycles
system.l2cache.demand_mshr_miss_latency::.cpu.dcache.prefetcher      1417976                       # number of demand (read+write) MSHR miss cycles
system.l2cache.demand_mshr_miss_latency::total     25419176                       # number of demand (read+write) MSHR miss cycles
system.l2cache.overall_mshr_miss_latency::.cpu.inst     15130400                       # number of overall MSHR miss cycles
system.l2cache.overall_mshr_miss_latency::.cpu.data      8870800                       # number of overall MSHR miss cycles
system.l2cache.overall_mshr_miss_latency::.cpu.dcache.prefetcher      1417976                       # number of overall MSHR miss cycles
system.l2cache.overall_mshr_miss_latency::total     25419176                       # number of overall MSHR miss cycles
system.l2cache.demand_mshr_miss_rate::.cpu.inst     0.419672                       # mshr miss rate for demand accesses
system.l2cache.demand_mshr_miss_rate::.cpu.data     0.554307                       # mshr miss rate for demand accesses
system.l2cache.demand_mshr_miss_rate::.cpu.dcache.prefetcher     0.800000                       # mshr miss rate for demand accesses
system.l2cache.demand_mshr_miss_rate::total     0.471885                       # mshr miss rate for demand accesses
system.l2cache.overall_mshr_miss_rate::.cpu.inst     0.419672                       # mshr miss rate for overall accesses
system.l2cache.overall_mshr_miss_rate::.cpu.data     0.554307                       # mshr miss rate for overall accesses
system.l2cache.overall_mshr_miss_rate::.cpu.dcache.prefetcher     0.800000                       # mshr miss rate for overall accesses
system.l2cache.overall_mshr_miss_rate::total     0.471885                       # mshr miss rate for overall accesses
system.l2cache.demand_avg_mshr_miss_latency::.cpu.inst 59103.125000                       # average overall mshr miss latency
system.l2cache.demand_avg_mshr_miss_latency::.cpu.data 59937.837838                       # average overall mshr miss latency
system.l2cache.demand_avg_mshr_miss_latency::.cpu.dcache.prefetcher 59082.333333                       # average overall mshr miss latency
system.l2cache.demand_avg_mshr_miss_latency::total 59390.598131                       # average overall mshr miss latency
system.l2cache.overall_avg_mshr_miss_latency::.cpu.inst 59103.125000                       # average overall mshr miss latency
system.l2cache.overall_avg_mshr_miss_latency::.cpu.data 59937.837838                       # average overall mshr miss latency
system.l2cache.overall_avg_mshr_miss_latency::.cpu.dcache.prefetcher 59082.333333                       # average overall mshr miss latency
system.l2cache.overall_avg_mshr_miss_latency::total 59390.598131                       # average overall mshr miss latency
system.l2cache.replacements                       440                       # number of replacements
system.l2cache.WritebackDirty_hits::.writebacks           88                       # number of WritebackDirty hits
system.l2cache.WritebackDirty_hits::total           88                       # number of WritebackDirty hits
system.l2cache.WritebackDirty_accesses::.writebacks           88                       # number of WritebackDirty accesses(hits+misses)
system.l2cache.WritebackDirty_accesses::total           88                       # number of WritebackDirty accesses(hits+misses)
system.l2cache.CleanEvict_mshr_misses::.writebacks           13                       # number of CleanEvict MSHR misses
system.l2cache.CleanEvict_mshr_misses::total           13                       # number of CleanEvict MSHR misses
system.l2cache.CleanEvict_mshr_miss_rate::.writebacks          inf                       # mshr miss rate for CleanEvict accesses
system.l2cache.CleanEvict_mshr_miss_rate::total          inf                       # mshr miss rate for CleanEvict accesses
system.l2cache.ReadExReq_hits::.cpu.data            7                       # number of ReadExReq hits
system.l2cache.ReadExReq_hits::total                7                       # number of ReadExReq hits
system.l2cache.ReadExReq_misses::.cpu.data           32                       # number of ReadExReq misses
system.l2cache.ReadExReq_misses::total             32                       # number of ReadExReq misses
system.l2cache.ReadExReq_miss_latency::.cpu.data      2114000                       # number of ReadExReq miss cycles
system.l2cache.ReadExReq_miss_latency::total      2114000                       # number of ReadExReq miss cycles
system.l2cache.ReadExReq_accesses::.cpu.data           39                       # number of ReadExReq accesses(hits+misses)
system.l2cache.ReadExReq_accesses::total           39                       # number of ReadExReq accesses(hits+misses)
system.l2cache.ReadExReq_miss_rate::.cpu.data     0.820513                       # miss rate for ReadExReq accesses
system.l2cache.ReadExReq_miss_rate::total     0.820513                       # miss rate for ReadExReq accesses
system.l2cache.ReadExReq_avg_miss_latency::.cpu.data 66062.500000                       # average ReadExReq miss latency
system.l2cache.ReadExReq_avg_miss_latency::total 66062.500000                       # average ReadExReq miss latency
system.l2cache.ReadExReq_mshr_misses::.cpu.data           32                       # number of ReadExReq MSHR misses
system.l2cache.ReadExReq_mshr_misses::total           32                       # number of ReadExReq MSHR misses
system.l2cache.ReadExReq_mshr_miss_latency::.cpu.data      1858000                       # number of ReadExReq MSHR miss cycles
system.l2cache.ReadExReq_mshr_miss_latency::total      1858000                       # number of ReadExReq MSHR miss cycles
system.l2cache.ReadExReq_mshr_miss_rate::.cpu.data     0.820513                       # mshr miss rate for ReadExReq accesses
system.l2cache.ReadExReq_mshr_miss_rate::total     0.820513                       # mshr miss rate for ReadExReq accesses
system.l2cache.ReadExReq_avg_mshr_miss_latency::.cpu.data 58062.500000                       # average ReadExReq mshr miss latency
system.l2cache.ReadExReq_avg_mshr_miss_latency::total 58062.500000                       # average ReadExReq mshr miss latency
system.l2cache.ReadSharedReq_hits::.cpu.inst          354                       # number of ReadSharedReq hits
system.l2cache.ReadSharedReq_hits::.cpu.data          112                       # number of ReadSharedReq hits
system.l2cache.ReadSharedReq_hits::.cpu.dcache.prefetcher            6                       # number of ReadSharedReq hits
system.l2cache.ReadSharedReq_hits::total          472                       # number of ReadSharedReq hits
system.l2cache.ReadSharedReq_misses::.cpu.inst          256                       # number of ReadSharedReq misses
system.l2cache.ReadSharedReq_misses::.cpu.data          116                       # number of ReadSharedReq misses
system.l2cache.ReadSharedReq_misses::.cpu.dcache.prefetcher           24                       # number of ReadSharedReq misses
system.l2cache.ReadSharedReq_misses::total          396                       # number of ReadSharedReq misses
system.l2cache.ReadSharedReq_miss_latency::.cpu.inst     17178400                       # number of ReadSharedReq miss cycles
system.l2cache.ReadSharedReq_miss_latency::.cpu.data      7940800                       # number of ReadSharedReq miss cycles
system.l2cache.ReadSharedReq_miss_latency::.cpu.dcache.prefetcher      1609976                       # number of ReadSharedReq miss cycles
system.l2cache.ReadSharedReq_miss_latency::total     26729176                       # number of ReadSharedReq miss cycles
system.l2cache.ReadSharedReq_accesses::.cpu.inst          610                       # number of ReadSharedReq accesses(hits+misses)
system.l2cache.ReadSharedReq_accesses::.cpu.data          228                       # number of ReadSharedReq accesses(hits+misses)
system.l2cache.ReadSharedReq_accesses::.cpu.dcache.prefetcher           30                       # number of ReadSharedReq accesses(hits+misses)
system.l2cache.ReadSharedReq_accesses::total          868                       # number of ReadSharedReq accesses(hits+misses)
system.l2cache.ReadSharedReq_miss_rate::.cpu.inst     0.419672                       # miss rate for ReadSharedReq accesses
system.l2cache.ReadSharedReq_miss_rate::.cpu.data     0.508772                       # miss rate for ReadSharedReq accesses
system.l2cache.ReadSharedReq_miss_rate::.cpu.dcache.prefetcher     0.800000                       # miss rate for ReadSharedReq accesses
system.l2cache.ReadSharedReq_miss_rate::total     0.456221                       # miss rate for ReadSharedReq accesses
system.l2cache.ReadSharedReq_avg_miss_latency::.cpu.inst 67103.125000                       # average ReadSharedReq miss latency
system.l2cache.ReadSharedReq_avg_miss_latency::.cpu.data 68455.172414                       # average ReadSharedReq miss latency
system.l2cache.ReadSharedReq_avg_miss_latency::.cpu.dcache.prefetcher 67082.333333                       # average ReadSharedReq miss latency
system.l2cache.ReadSharedReq_avg_miss_latency::total 67497.919192                       # average ReadSharedReq miss latency
system.l2cache.ReadSharedReq_mshr_misses::.cpu.inst          256                       # number of ReadSharedReq MSHR misses
system.l2cache.ReadSharedReq_mshr_misses::.cpu.data          116                       # number of ReadSharedReq MSHR misses
system.l2cache.ReadSharedReq_mshr_misses::.cpu.dcache.prefetcher           24                       # number of ReadSharedReq MSHR misses
system.l2cache.ReadSharedReq_mshr_misses::total          396                       # number of ReadSharedReq MSHR misses
system.l2cache.ReadSharedReq_mshr_miss_latency::.cpu.inst     15130400                       # number of ReadSharedReq MSHR miss cycles
system.l2cache.ReadSharedReq_mshr_miss_latency::.cpu.data      7012800                       # number of ReadSharedReq MSHR miss cycles
system.l2cache.ReadSharedReq_mshr_miss_latency::.cpu.dcache.prefetcher      1417976                       # number of ReadSharedReq MSHR miss cycles
system.l2cache.ReadSharedReq_mshr_miss_latency::total     23561176                       # number of ReadSharedReq MSHR miss cycles
system.l2cache.ReadSharedReq_mshr_miss_rate::.cpu.inst     0.419672                       # mshr miss rate for ReadSharedReq accesses
system.l2cache.ReadSharedReq_mshr_miss_rate::.cpu.data     0.508772                       # mshr miss rate for ReadSharedReq accesses
system.l2cache.ReadSharedReq_mshr_miss_rate::.cpu.dcache.prefetcher     0.800000                       # mshr miss rate for ReadSharedReq accesses
system.l2cache.ReadSharedReq_mshr_miss_rate::total     0.456221                       # mshr miss rate for ReadSharedReq accesses
system.l2cache.ReadSharedReq_avg_mshr_miss_latency::.cpu.inst 59103.125000                       # average ReadSharedReq mshr miss latency
system.l2cache.ReadSharedReq_avg_mshr_miss_latency::.cpu.data 60455.172414                       # average ReadSharedReq mshr miss latency
system.l2cache.ReadSharedReq_avg_mshr_miss_latency::.cpu.dcache.prefetcher 59082.333333                       # average ReadSharedReq mshr miss latency
system.l2cache.ReadSharedReq_avg_mshr_miss_latency::total 59497.919192                       # average ReadSharedReq mshr miss latency
system.l2cache.prefetcher.pwrStateResidencyTicks::UNDEFINED     41902400                       # Cumulative time (in ticks) in various power states
system.l2cache.tags.pwrStateResidencyTicks::UNDEFINED     41902400                       # Cumulative time (in ticks) in various power states
system.l2cache.tags.tagsinuse                    4096                       # Cycle average of tags in use
system.l2cache.tags.total_refs                  14440                       # Total number of references to valid blocks.
system.l2cache.tags.sampled_refs                 4536                       # Sample count of references to valid blocks.
system.l2cache.tags.avg_refs                 3.183422                       # Average number of references to valid blocks.
system.l2cache.tags.warmup_cycle                    0                       # Cycle when the warmup percentage was hit.
system.l2cache.tags.occ_blocks::.writebacks    43.459076                       # Average occupied blocks per requestor
system.l2cache.tags.occ_blocks::.cpu.inst  1142.614087                       # Average occupied blocks per requestor
system.l2cache.tags.occ_blocks::.cpu.data  1789.615945                       # Average occupied blocks per requestor
system.l2cache.tags.occ_blocks::.cpu.dcache.prefetcher  1011.311331                       # Average occupied blocks per requestor
system.l2cache.tags.occ_blocks::.l2cache.prefetcher   108.999561                       # Average occupied blocks per requestor
system.l2cache.tags.occ_percent::.writebacks     0.010610                       # Average percentage of cache occupancy
system.l2cache.tags.occ_percent::.cpu.inst     0.278959                       # Average percentage of cache occupancy
system.l2cache.tags.occ_percent::.cpu.data     0.436918                       # Average percentage of cache occupancy
system.l2cache.tags.occ_percent::.cpu.dcache.prefetcher     0.246902                       # Average percentage of cache occupancy
system.l2cache.tags.occ_percent::.l2cache.prefetcher     0.026611                       # Average percentage of cache occupancy
system.l2cache.tags.occ_percent::total              1                       # Average percentage of cache occupancy
system.l2cache.tags.occ_task_id_blocks::1022         1034                       # Occupied blocks per task id
system.l2cache.tags.occ_task_id_blocks::1024         3062                       # Occupied blocks per task id
system.l2cache.tags.age_task_id_blocks_1022::0            7                       # Occupied blocks per task id
system.l2cache.tags.age_task_id_blocks_1022::1           37                       # Occupied blocks per task id
system.l2cache.tags.age_task_id_blocks_1022::2          989                       # Occupied blocks per task id
system.l2cache.tags.age_task_id_blocks_1022::3            1                       # Occupied blocks per task id
system.l2cache.tags.age_task_id_blocks_1024::0          174                       # Occupied blocks per task id
system.l2cache.tags.age_task_id_blocks_1024::1          558                       # Occupied blocks per task id
system.l2cache.tags.age_task_id_blocks_1024::2         2284                       # Occupied blocks per task id
system.l2cache.tags.age_task_id_blocks_1024::3           46                       # Occupied blocks per task id
system.l2cache.tags.occ_task_id_percent::1022     0.252441                       # Percentage of cache occupancy per task id
system.l2cache.tags.occ_task_id_percent::1024     0.747559                       # Percentage of cache occupancy per task id
system.l2cache.tags.tag_accesses                14952                       # Number of tag accesses
system.l2cache.tags.data_accesses               14952                       # Number of data accesses
system.mem_ctrl.pwrStateResidencyTicks::UNDEFINED     41902400                       # Cumulative time (in ticks) in various power states
system.mem_ctrl.bytes_read::.cpu.inst           16384                       # Number of bytes read from this memory
system.mem_ctrl.bytes_read::.cpu.data            9472                       # Number of bytes read from this memory
system.mem_ctrl.bytes_read::.cpu.dcache.prefetcher         1536                       # Number of bytes read from this memory
system.mem_ctrl.bytes_read::total               27392                       # Number of bytes read from this memory
system.mem_ctrl.bytes_inst_read::.cpu.inst        16384                       # Number of instructions bytes read from this memory
system.mem_ctrl.bytes_inst_read::total          16384                       # Number of instructions bytes read from this memory
system.mem_ctrl.bytes_written::.writebacks         1664                       # Number of bytes written to this memory
system.mem_ctrl.bytes_written::total             1664                       # Number of bytes written to this memory
system.mem_ctrl.num_reads::.cpu.inst              256                       # Number of read requests responded to by this memory
system.mem_ctrl.num_reads::.cpu.data              148                       # Number of read requests responded to by this memory
system.mem_ctrl.num_reads::.cpu.dcache.prefetcher           24                       # Number of read requests responded to by this memory
system.mem_ctrl.num_reads::total                  428                       # Number of read requests responded to by this memory
system.mem_ctrl.num_writes::.writebacks            26                       # Number of write requests responded to by this memory
system.mem_ctrl.num_writes::total                  26                       # Number of write requests responded to by this memory
system.mem_ctrl.bw_read::.cpu.inst          391003857                       # Total read bandwidth from this memory (bytes/s)
system.mem_ctrl.bw_read::.cpu.data          226049105                       # Total read bandwidth from this memory (bytes/s)
system.mem_ctrl.bw_read::.cpu.dcache.prefetcher     36656612                       # Total read bandwidth from this memory (bytes/s)
system.mem_ctrl.bw_read::total              653709573                       # Total read bandwidth from this memory (bytes/s)
system.mem_ctrl.bw_inst_read::.cpu.inst     391003857                       # Instruction read bandwidth from this memory (bytes/s)
system.mem_ctrl.bw_inst_read::total         391003857                       # Instruction read bandwidth from this memory (bytes/s)
system.mem_ctrl.bw_write::.writebacks        39711329                       # Write bandwidth from this memory (bytes/s)
system.mem_ctrl.bw_write::total              39711329                       # Write bandwidth from this memory (bytes/s)
system.mem_ctrl.bw_total::.writebacks        39711329                       # Total bandwidth to/from this memory (bytes/s)
system.mem_ctrl.bw_total::.cpu.inst         391003857                       # Total bandwidth to/from this memory (bytes/s)
system.mem_ctrl.bw_total::.cpu.data         226049105                       # Total bandwidth to/from this memory (bytes/s)
system.mem_ctrl.bw_total::.cpu.dcache.prefetcher     36656612                       # Total bandwidth to/from this memory (bytes/s)
system.mem_ctrl.bw_total::total             693420902                       # Total bandwidth to/from this memory (bytes/s)

---------- End Simulation Statistics   ----------
