
---------- Begin Simulation Statistics ----------
final_tick                                 1081148400                       # Number of ticks from beginning of simulation (restored from checkpoints and never reset)
host_inst_rate                                 184125                       # Simulator instruction rate (inst/s)
host_mem_usage                                4402740                       # Number of bytes of host memory used
host_op_rate                                   319823                       # Simulator op (including micro ops) rate (op/s)
host_seconds                                    11.11                       # Real time elapsed on the host
host_tick_rate                               97290838                       # Simulator tick rate (ticks/s)
sim_freq                                 1000000000000                       # Frequency of simulated ticks
sim_insts                                     2046085                       # Number of instructions simulated
sim_ops                                       3554045                       # Number of ops (including micro ops) simulated
sim_seconds                                  0.001081                       # Number of seconds simulated
sim_ticks                                  1081148400                       # Number of ticks simulated
system.cpu.branchPred.BTBCorrect                    0                       # Number of correct BTB predictions (this stat may not work properly.
system.cpu.branchPred.BTBHitPct              0.000000                       # BTB Hit Percentage
system.cpu.branchPred.BTBHits                       0                       # Number of BTB hits
system.cpu.branchPred.BTBLookups               434435                       # Number of BTB lookups
system.cpu.branchPred.RASInCorrect                  5                       # Number of incorrect RAS predictions.
system.cpu.branchPred.condIncorrect             24225                       # Number of conditional branches incorrect
system.cpu.branchPred.condPredicted            460723                       # Number of conditional branches predicted
system.cpu.branchPred.indirectHits             236743                       # Number of indirect target hits.
system.cpu.branchPred.indirectLookups          434435                       # Number of indirect predictor lookups.
system.cpu.branchPred.indirectMisses           197692                       # Number of indirect misses.
system.cpu.branchPred.lookups                  486326                       # Number of BP lookups
system.cpu.branchPred.usedRAS                   10992                       # Number of times the RAS was used to get a target.
system.cpu.branchPredindirectMispredicted        12154                       # Number of mispredicted indirect branches.
system.cpu.cc_regfile_reads                   2349403                       # number of cc regfile reads
system.cpu.cc_regfile_writes                  1924893                       # number of cc regfile writes
system.cpu.commit.amos                              0                       # Number of atomic instructions committed
system.cpu.commit.branchMispredicts             24307                       # The number of times a branch was mispredicted
system.cpu.commit.branches                     341186                       # Number of branches committed
system.cpu.commit.bw_lim_events                589539                       # number cycles where commit BW limit reached
system.cpu.commit.commitNonSpecStalls             732                       # The number of times commit has been forced to stall to communicate backwards
system.cpu.commit.commitSquashedInsts          889211                       # The number of squashed insts skipped by commit
system.cpu.commit.committedInsts              2046085                       # Number of instructions committed
system.cpu.commit.committedOps                3554045                       # Number of ops (including micro ops) committed
system.cpu.commit.committed_per_cycle::samples      2311587                       # Number of insts commited each cycle
system.cpu.commit.committed_per_cycle::mean     1.537491                       # Number of insts commited each cycle
system.cpu.commit.committed_per_cycle::stdev     1.723372                       # Number of insts commited each cycle
system.cpu.commit.committed_per_cycle::underflows            0      0.00%      0.00% # Number of insts commited each cycle
system.cpu.commit.committed_per_cycle::0      1149465     49.73%     49.73% # Number of insts commited each cycle
system.cpu.commit.committed_per_cycle::1       176588      7.64%     57.37% # Number of insts commited each cycle
system.cpu.commit.committed_per_cycle::2       168684      7.30%     64.66% # Number of insts commited each cycle
system.cpu.commit.committed_per_cycle::3       227311      9.83%     74.50% # Number of insts commited each cycle
system.cpu.commit.committed_per_cycle::4       589539     25.50%    100.00% # Number of insts commited each cycle
system.cpu.commit.committed_per_cycle::overflows            0      0.00%    100.00% # Number of insts commited each cycle
system.cpu.commit.committed_per_cycle::min_value            0                       # Number of insts commited each cycle
system.cpu.commit.committed_per_cycle::max_value            4                       # Number of insts commited each cycle
system.cpu.commit.committed_per_cycle::total      2311587                       # Number of insts commited each cycle
system.cpu.commit.fp_insts                      72844                       # Number of committed floating point instructions.
system.cpu.commit.function_calls                 9172                       # Number of function calls committed.
system.cpu.commit.int_insts                   3499879                       # Number of committed integer instructions.
system.cpu.commit.loads                        487042                       # Number of loads committed
system.cpu.commit.membars                           1                       # Number of memory barriers committed
system.cpu.commit.op_class_0::No_OpClass        20165      0.57%      0.57% # Class of committed instruction
system.cpu.commit.op_class_0::IntAlu          2797595     78.72%     79.28% # Class of committed instruction
system.cpu.commit.op_class_0::IntMult            1403      0.04%     79.32% # Class of committed instruction
system.cpu.commit.op_class_0::IntDiv            37816      1.06%     80.39% # Class of committed instruction
system.cpu.commit.op_class_0::FloatAdd           2834      0.08%     80.47% # Class of committed instruction
system.cpu.commit.op_class_0::FloatCmp              0      0.00%     80.47% # Class of committed instruction
system.cpu.commit.op_class_0::FloatCvt           1200      0.03%     80.50% # Class of committed instruction
system.cpu.commit.op_class_0::FloatMult             0      0.00%     80.50% # Class of committed instruction
system.cpu.commit.op_class_0::FloatMultAcc            0      0.00%     80.50% # Class of committed instruction
system.cpu.commit.op_class_0::FloatDiv              0      0.00%     80.50% # Class of committed instruction
system.cpu.commit.op_class_0::FloatMisc             0      0.00%     80.50% # Class of committed instruction
system.cpu.commit.op_class_0::FloatSqrt             0      0.00%     80.50% # Class of committed instruction
system.cpu.commit.op_class_0::SimdAdd            6184      0.17%     80.67% # Class of committed instruction
system.cpu.commit.op_class_0::SimdAddAcc            0      0.00%     80.67% # Class of committed instruction
system.cpu.commit.op_class_0::SimdAlu           11116      0.31%     80.99% # Class of committed instruction
system.cpu.commit.op_class_0::SimdCmp               0      0.00%     80.99% # Class of committed instruction
system.cpu.commit.op_class_0::SimdCvt           12050      0.34%     81.33% # Class of committed instruction
system.cpu.commit.op_class_0::SimdMisc           6479      0.18%     81.51% # Class of committed instruction
system.cpu.commit.op_class_0::SimdMult              0      0.00%     81.51% # Class of committed instruction
system.cpu.commit.op_class_0::SimdMultAcc            0      0.00%     81.51% # Class of committed instruction
system.cpu.commit.op_class_0::SimdShift          1055      0.03%     81.54% # Class of committed instruction
system.cpu.commit.op_class_0::SimdShiftAcc            0      0.00%     81.54% # Class of committed instruction
system.cpu.commit.op_class_0::SimdDiv               0      0.00%     81.54% # Class of committed instruction
system.cpu.commit.op_class_0::SimdSqrt              0      0.00%     81.54% # Class of committed instruction
system.cpu.commit.op_class_0::SimdFloatAdd            0      0.00%     81.54% # Class of committed instruction
system.cpu.commit.op_class_0::SimdFloatAlu            0      0.00%     81.54% # Class of committed instruction
system.cpu.commit.op_class_0::SimdFloatCmp            0      0.00%     81.54% # Class of committed instruction
system.cpu.commit.op_class_0::SimdFloatCvt            0      0.00%     81.54% # Class of committed instruction
system.cpu.commit.op_class_0::SimdFloatDiv            0      0.00%     81.54% # Class of committed instruction
system.cpu.commit.op_class_0::SimdFloatMisc            0      0.00%     81.54% # Class of committed instruction
system.cpu.commit.op_class_0::SimdFloatMult            0      0.00%     81.54% # Class of committed instruction
system.cpu.commit.op_class_0::SimdFloatMultAcc            0      0.00%     81.54% # Class of committed instruction
system.cpu.commit.op_class_0::SimdFloatSqrt            0      0.00%     81.54% # Class of committed instruction
system.cpu.commit.op_class_0::SimdReduceAdd            0      0.00%     81.54% # Class of committed instruction
system.cpu.commit.op_class_0::SimdReduceAlu            0      0.00%     81.54% # Class of committed instruction
system.cpu.commit.op_class_0::SimdReduceCmp            0      0.00%     81.54% # Class of committed instruction
system.cpu.commit.op_class_0::SimdFloatReduceAdd            0      0.00%     81.54% # Class of committed instruction
system.cpu.commit.op_class_0::SimdFloatReduceCmp            0      0.00%     81.54% # Class of committed instruction
system.cpu.commit.op_class_0::SimdAes               0      0.00%     81.54% # Class of committed instruction
system.cpu.commit.op_class_0::SimdAesMix            0      0.00%     81.54% # Class of committed instruction
system.cpu.commit.op_class_0::SimdSha1Hash            0      0.00%     81.54% # Class of committed instruction
system.cpu.commit.op_class_0::SimdSha1Hash2            0      0.00%     81.54% # Class of committed instruction
system.cpu.commit.op_class_0::SimdSha256Hash            0      0.00%     81.54% # Class of committed instruction
system.cpu.commit.op_class_0::SimdSha256Hash2            0      0.00%     81.54% # Class of committed instruction
system.cpu.commit.op_class_0::SimdShaSigma2            0      0.00%     81.54% # Class of committed instruction
system.cpu.commit.op_class_0::SimdShaSigma3            0      0.00%     81.54% # Class of committed instruction
system.cpu.commit.op_class_0::SimdPredAlu            0      0.00%     81.54% # Class of committed instruction
system.cpu.commit.op_class_0::MemRead          468004     13.17%     94.71% # Class of committed instruction
system.cpu.commit.op_class_0::MemWrite         157037      4.42%     99.12% # Class of committed instruction
system.cpu.commit.op_class_0::FloatMemRead        19038      0.54%     99.66% # Class of committed instruction
system.cpu.commit.op_class_0::FloatMemWrite        12069      0.34%    100.00% # Class of committed instruction
system.cpu.commit.op_class_0::IprAccess             0      0.00%    100.00% # Class of committed instruction
system.cpu.commit.op_class_0::InstPrefetch            0      0.00%    100.00% # Class of committed instruction
system.cpu.commit.op_class_0::total           3554045                       # Class of committed instruction
system.cpu.commit.refs                         656148                       # Number of memory references committed
system.cpu.commit.swp_count                         0                       # Number of s/w prefetches committed
system.cpu.commit.vec_insts                         0                       # Number of committed Vector instructions.
system.cpu.committedInsts                     2046085                       # Number of Instructions Simulated
system.cpu.committedOps                       3554045                       # Number of Ops (including micro ops) Simulated
system.cpu.cpi                               1.320997                       # CPI: Cycles Per Instruction
system.cpu.cpi_total                         1.320997                       # CPI: Total CPI of All Threads
system.cpu.dcache.prefetcher.num_hwpf_issued         7713                       # number of hwpf issued
system.cpu.dcache.prefetcher.pfBufferHit        33404                       # number of redundant prefetches already in prefetch queue
system.cpu.dcache.prefetcher.pfIdentified        48291                       # number of prefetch candidates identified
system.cpu.dcache.prefetcher.pfInCache              0                       # number of redundant prefetches already in cache/mshr dropped
system.cpu.dcache.prefetcher.pfRemovedFull            0                       # number of prefetches dropped due to prefetch queue size
system.cpu.dcache.prefetcher.pfSpanPage          4349                       # number of prefetches that crossed the page
system.cpu.decode.BlockedCycles               1021440                       # Number of cycles decode is blocked
system.cpu.decode.DecodedInsts                4660402                       # Number of instructions handled by decode
system.cpu.decode.IdleCycles                   289126                       # Number of cycles decode is idle
system.cpu.decode.RunCycles                   1130631                       # Number of cycles decode is running
system.cpu.decode.SquashCycles                  24375                       # Number of cycles decode is squashing
system.cpu.decode.UnblockCycles                 88355                       # Number of cycles decode is unblocking
system.cpu.dtb.rdAccesses                      571026                       # TLB accesses on read requests
system.cpu.dtb.rdMisses                          2028                       # TLB misses on read requests
system.cpu.dtb.wrAccesses                      189298                       # TLB accesses on write requests
system.cpu.dtb.wrMisses                           164                       # TLB misses on write requests
system.cpu.fetch.Branches                      486326                       # Number of branches that fetch encountered
system.cpu.fetch.CacheLines                    237929                       # Number of cache lines fetched
system.cpu.fetch.Cycles                       2203772                       # Number of cycles fetch has run and was not squashing or blocked
system.cpu.fetch.IcacheSquashes                  4608                       # Number of outstanding Icache misses that were squashed
system.cpu.fetch.Insts                        2819749                       # Number of instructions fetch has processed
system.cpu.fetch.MiscStallCycles                  109                       # Number of cycles fetch has spent waiting on interrupts, or bad addresses, or out of MSHRs
system.cpu.fetch.PendingQuiesceStallCycles           10                       # Number of stall cycles due to pending quiesce instructions
system.cpu.fetch.PendingTrapStallCycles           599                       # Number of stall cycles due to pending traps
system.cpu.fetch.SquashCycles                   48750                       # Number of cycles fetch has spent squashing
system.cpu.fetch.branchRate                  0.179929                       # Number of branch fetches per cycle
system.cpu.fetch.icacheStallCycles             325062                       # Number of cycles fetch is stalled on an Icache miss
system.cpu.fetch.predictedBranches             247735                       # Number of branches that fetch has predicted taken
system.cpu.fetch.rate                        1.043242                       # Number of inst fetches per cycle
system.cpu.fetch.rateDist::samples            2553927                       # Number of instructions fetched each cycle (Total)
system.cpu.fetch.rateDist::mean              1.933704                       # Number of instructions fetched each cycle (Total)
system.cpu.fetch.rateDist::stdev             1.931428                       # Number of instructions fetched each cycle (Total)
system.cpu.fetch.rateDist::underflows               0      0.00%      0.00% # Number of instructions fetched each cycle (Total)
system.cpu.fetch.rateDist::0                  1216506     47.63%     47.63% # Number of instructions fetched each cycle (Total)
system.cpu.fetch.rateDist::1                    73394      2.87%     50.51% # Number of instructions fetched each cycle (Total)
system.cpu.fetch.rateDist::2                    57897      2.27%     52.77% # Number of instructions fetched each cycle (Total)
system.cpu.fetch.rateDist::3                    75170      2.94%     55.72% # Number of instructions fetched each cycle (Total)
system.cpu.fetch.rateDist::4                  1130960     44.28%    100.00% # Number of instructions fetched each cycle (Total)
system.cpu.fetch.rateDist::overflows                0      0.00%    100.00% # Number of instructions fetched each cycle (Total)
system.cpu.fetch.rateDist::min_value                0                       # Number of instructions fetched each cycle (Total)
system.cpu.fetch.rateDist::max_value                4                       # Number of instructions fetched each cycle (Total)
system.cpu.fetch.rateDist::total              2553927                       # Number of instructions fetched each cycle (Total)
system.cpu.fp_regfile_reads                    118529                       # number of floating regfile reads
system.cpu.fp_regfile_writes                    64783                       # number of floating regfile writes
system.cpu.fuPool.fu_ticks_busy::IntALU(0)    215310000                       # Total ticks fu was busy
system.cpu.fuPool.fu_ticks_busy::IntALU(1)    215310000                       # Total ticks fu was busy
system.cpu.fuPool.fu_ticks_busy::IntALU(2)    215310000                       # Total ticks fu was busy
system.cpu.fuPool.fu_ticks_busy::IntALU(3)    215310000                       # Total ticks fu was busy
system.cpu.fuPool.fu_ticks_busy::IntALU(4)    215309600                       # Total ticks fu was busy
system.cpu.fuPool.fu_ticks_busy::IntALU(5)    215309600                       # Total ticks fu was busy
system.cpu.fuPool.fu_ticks_busy::IntMultDiv(0)      8656800                       # Total ticks fu was busy
system.cpu.fuPool.fu_ticks_busy::IntMultDiv(1)      8656000                       # Total ticks fu was busy
system.cpu.fuPool.fu_ticks_busy::FP_ALU(0)       550400                       # Total ticks fu was busy
system.cpu.fuPool.fu_ticks_busy::FP_ALU(1)       550400                       # Total ticks fu was busy
system.cpu.fuPool.fu_ticks_busy::FP_ALU(2)       550400                       # Total ticks fu was busy
system.cpu.fuPool.fu_ticks_busy::FP_ALU(3)       550000                       # Total ticks fu was busy
system.cpu.fuPool.fu_ticks_busy::FP_MultDiv(0)            0                       # Total ticks fu was busy
system.cpu.fuPool.fu_ticks_busy::FP_MultDiv(1)            0                       # Total ticks fu was busy
system.cpu.fuPool.fu_ticks_busy::SIMD_Unit(0)      4346800                       # Total ticks fu was busy
system.cpu.fuPool.fu_ticks_busy::SIMD_Unit(1)      4302800                       # Total ticks fu was busy
system.cpu.fuPool.fu_ticks_busy::SIMD_Unit(2)      4511200                       # Total ticks fu was busy
system.cpu.fuPool.fu_ticks_busy::SIMD_Unit(3)      4548400                       # Total ticks fu was busy
system.cpu.fuPool.fu_ticks_busy::PredALU(0)            0                       # Total ticks fu was busy
system.cpu.fuPool.fu_ticks_busy::RdWrPort(0)     77559600                       # Total ticks fu was busy
system.cpu.fuPool.fu_ticks_busy::RdWrPort(1)     77484400                       # Total ticks fu was busy
system.cpu.fuPool.fu_ticks_busy::RdWrPort(2)     77490400                       # Total ticks fu was busy
system.cpu.fuPool.fu_ticks_busy::RdWrPort(3)     77508400                       # Total ticks fu was busy
system.cpu.fuPool.fu_ticks_busy::IprPort(0)            0                       # Total ticks fu was busy
system.cpu.fuPool.fu_ticks_busy::total     1639125200                       # Total ticks fu was busy
system.cpu.icache.prefetcher.num_hwpf_issued            0                       # number of hwpf issued
system.cpu.icache.prefetcher.pfBufferHit            0                       # number of redundant prefetches already in prefetch queue
system.cpu.icache.prefetcher.pfIdentified            0                       # number of prefetch candidates identified
system.cpu.icache.prefetcher.pfInCache              0                       # number of redundant prefetches already in cache/mshr dropped
system.cpu.icache.prefetcher.pfRemovedFull            0                       # number of prefetches dropped due to prefetch queue size
system.cpu.icache.prefetcher.pfSpanPage             0                       # number of prefetches that crossed the page
system.cpu.idleCycles                          148945                       # Total number of cycles that the CPU has spent unscheduled due to idling
system.cpu.iew.branchMispredicts                28711                       # Number of branch mispredicts detected at execute
system.cpu.iew.exec_branches                   371975                       # Number of branches executed
system.cpu.iew.exec_nop                             0                       # number of nop insts executed
system.cpu.iew.exec_rate                     1.513012                       # Inst execution rate
system.cpu.iew.exec_refs                       762052                       # number of memory reference insts executed
system.cpu.iew.exec_stores                     189287                       # Number of stores executed
system.cpu.iew.exec_swp                             0                       # number of swp insts executed
system.cpu.iew.iewBlockCycles                  682687                       # Number of cycles IEW is blocking
system.cpu.iew.iewDispLoadInsts                603326                       # Number of dispatched load instructions
system.cpu.iew.iewDispNonSpecInsts                914                       # Number of dispatched non-speculative instructions
system.cpu.iew.iewDispSquashedInsts               612                       # Number of squashed instructions skipped by dispatch
system.cpu.iew.iewDispStoreInsts               199875                       # Number of dispatched store instructions
system.cpu.iew.iewDispatchedInsts             4443180                       # Number of instructions dispatched to IQ
system.cpu.iew.iewExecLoadInsts                572765                       # Number of load instructions executed
system.cpu.iew.iewExecSquashedInsts             34416                       # Number of squashed instructions skipped in execute
system.cpu.iew.iewExecutedInsts               4089478                       # Number of executed instructions
system.cpu.iew.iewIQFullEvents                   3278                       # Number of times the IQ has become full, causing a stall
system.cpu.iew.iewIdleCycles                        0                       # Number of cycles IEW is idle
system.cpu.iew.iewLSQFullEvents                  9454                       # Number of times the LSQ has become full, causing a stall
system.cpu.iew.iewSquashCycles                  24375                       # Number of cycles IEW is squashing
system.cpu.iew.iewUnblockCycles                 15548                       # Number of cycles IEW is unblocking
system.cpu.iew.lsq.thread0.blockedLoads             0                       # Number of blocked loads due to partial load-store forwarding
system.cpu.iew.lsq.thread0.cacheBlocked           609                       # Number of times an access to memory failed due to the cache being blocked
system.cpu.iew.lsq.thread0.forwLoads            39752                       # Number of loads that had data forwarded from stores
system.cpu.iew.lsq.thread0.ignoredResponses          235                       # Number of memory responses ignored because the instruction is squashed
system.cpu.iew.lsq.thread0.invAddrLoads             0                       # Number of loads ignored due to an invalid address
system.cpu.iew.lsq.thread0.invAddrSwpfs             0                       # Number of software prefetches ignored due to an invalid address
system.cpu.iew.lsq.thread0.memOrderViolation           83                       # Number of memory ordering violations
system.cpu.iew.lsq.thread0.rescheduledLoads            0                       # Number of loads that were rescheduled
system.cpu.iew.lsq.thread0.squashedLoads       116282                       # Number of loads squashed
system.cpu.iew.lsq.thread0.squashedStores        30768                       # Number of stores squashed
system.cpu.iew.memOrderViolationEvents             83                       # Number of memory order violations
system.cpu.iew.predictedNotTakenIncorrect        20592                       # Number of branches that were predicted not taken incorrectly
system.cpu.iew.predictedTakenIncorrect           8119                       # Number of branches that were predicted taken incorrectly
system.cpu.iew.wb_consumers                   5743008                       # num instructions consuming a value
system.cpu.iew.wb_count                       4067518                       # cumulative count of insts written-back
system.cpu.iew.wb_fanout                     0.566328                       # average fanout of values written-back
system.cpu.iew.wb_producers                   3252426                       # num instructions producing a value
system.cpu.iew.wb_rate                       1.504887                       # insts written-back per cycle
system.cpu.iew.wb_sent                        4074426                       # cumulative count of insts sent to commit
system.cpu.int_regfile_reads                  6339576                       # number of integer regfile reads
system.cpu.int_regfile_writes                 3518448                       # number of integer regfile writes
system.cpu.ipc                               0.757004                       # IPC: Instructions Per Cycle
system.cpu.ipc_total                         0.757004                       # IPC: Total IPC of All Threads
system.cpu.iq.FU_type_0::No_OpClass             26081      0.63%      0.63% # Type of FU issued
system.cpu.iq.FU_type_0::IntAlu               3229649     78.32%     78.95% # Type of FU issued
system.cpu.iq.FU_type_0::IntMult                 1425      0.03%     78.98% # Type of FU issued
system.cpu.iq.FU_type_0::IntDiv                 41857      1.01%     80.00% # Type of FU issued
system.cpu.iq.FU_type_0::FloatAdd                4263      0.10%     80.10% # Type of FU issued
system.cpu.iq.FU_type_0::FloatCmp                   0      0.00%     80.10% # Type of FU issued
system.cpu.iq.FU_type_0::FloatCvt                1240      0.03%     80.13% # Type of FU issued
system.cpu.iq.FU_type_0::FloatMult                  0      0.00%     80.13% # Type of FU issued
system.cpu.iq.FU_type_0::FloatMultAcc               0      0.00%     80.13% # Type of FU issued
system.cpu.iq.FU_type_0::FloatDiv                   0      0.00%     80.13% # Type of FU issued
system.cpu.iq.FU_type_0::FloatMisc                  0      0.00%     80.13% # Type of FU issued
system.cpu.iq.FU_type_0::FloatSqrt                  0      0.00%     80.13% # Type of FU issued
system.cpu.iq.FU_type_0::SimdAdd                 6788      0.16%     80.30% # Type of FU issued
system.cpu.iq.FU_type_0::SimdAddAcc                 0      0.00%     80.30% # Type of FU issued
system.cpu.iq.FU_type_0::SimdAlu                14780      0.36%     80.65% # Type of FU issued
system.cpu.iq.FU_type_0::SimdCmp                    0      0.00%     80.65% # Type of FU issued
system.cpu.iq.FU_type_0::SimdCvt                13669      0.33%     80.99% # Type of FU issued
system.cpu.iq.FU_type_0::SimdMisc                7034      0.17%     81.16% # Type of FU issued
system.cpu.iq.FU_type_0::SimdMult                   0      0.00%     81.16% # Type of FU issued
system.cpu.iq.FU_type_0::SimdMultAcc                0      0.00%     81.16% # Type of FU issued
system.cpu.iq.FU_type_0::SimdShift               2002      0.05%     81.20% # Type of FU issued
system.cpu.iq.FU_type_0::SimdShiftAcc               0      0.00%     81.20% # Type of FU issued
system.cpu.iq.FU_type_0::SimdDiv                    0      0.00%     81.20% # Type of FU issued
system.cpu.iq.FU_type_0::SimdSqrt                   0      0.00%     81.20% # Type of FU issued
system.cpu.iq.FU_type_0::SimdFloatAdd               0      0.00%     81.20% # Type of FU issued
system.cpu.iq.FU_type_0::SimdFloatAlu               0      0.00%     81.20% # Type of FU issued
system.cpu.iq.FU_type_0::SimdFloatCmp               0      0.00%     81.20% # Type of FU issued
system.cpu.iq.FU_type_0::SimdFloatCvt               0      0.00%     81.20% # Type of FU issued
system.cpu.iq.FU_type_0::SimdFloatDiv               0      0.00%     81.20% # Type of FU issued
system.cpu.iq.FU_type_0::SimdFloatMisc              0      0.00%     81.20% # Type of FU issued
system.cpu.iq.FU_type_0::SimdFloatMult              0      0.00%     81.20% # Type of FU issued
system.cpu.iq.FU_type_0::SimdFloatMultAcc            0      0.00%     81.20% # Type of FU issued
system.cpu.iq.FU_type_0::SimdFloatSqrt              0      0.00%     81.20% # Type of FU issued
system.cpu.iq.FU_type_0::SimdReduceAdd              0      0.00%     81.20% # Type of FU issued
system.cpu.iq.FU_type_0::SimdReduceAlu              0      0.00%     81.20% # Type of FU issued
system.cpu.iq.FU_type_0::SimdReduceCmp              0      0.00%     81.20% # Type of FU issued
system.cpu.iq.FU_type_0::SimdFloatReduceAdd            0      0.00%     81.20% # Type of FU issued
system.cpu.iq.FU_type_0::SimdFloatReduceCmp            0      0.00%     81.20% # Type of FU issued
system.cpu.iq.FU_type_0::SimdAes                    0      0.00%     81.20% # Type of FU issued
system.cpu.iq.FU_type_0::SimdAesMix                 0      0.00%     81.20% # Type of FU issued
system.cpu.iq.FU_type_0::SimdSha1Hash               0      0.00%     81.20% # Type of FU issued
system.cpu.iq.FU_type_0::SimdSha1Hash2              0      0.00%     81.20% # Type of FU issued
system.cpu.iq.FU_type_0::SimdSha256Hash             0      0.00%     81.20% # Type of FU issued
system.cpu.iq.FU_type_0::SimdSha256Hash2            0      0.00%     81.20% # Type of FU issued
system.cpu.iq.FU_type_0::SimdShaSigma2              0      0.00%     81.20% # Type of FU issued
system.cpu.iq.FU_type_0::SimdShaSigma3              0      0.00%     81.20% # Type of FU issued
system.cpu.iq.FU_type_0::SimdPredAlu                0      0.00%     81.20% # Type of FU issued
system.cpu.iq.FU_type_0::MemRead               558665     13.55%     94.75% # Type of FU issued
system.cpu.iq.FU_type_0::MemWrite              178298      4.32%     99.08% # Type of FU issued
system.cpu.iq.FU_type_0::FloatMemRead           24467      0.59%     99.67% # Type of FU issued
system.cpu.iq.FU_type_0::FloatMemWrite          13679      0.33%    100.00% # Type of FU issued
system.cpu.iq.FU_type_0::IprAccess                  0      0.00%    100.00% # Type of FU issued
system.cpu.iq.FU_type_0::InstPrefetch               0      0.00%    100.00% # Type of FU issued
system.cpu.iq.FU_type_0::total                4123897                       # Type of FU issued
system.cpu.iq.fp_alu_accesses                   88884                       # Number of floating point alu accesses
system.cpu.iq.fp_inst_queue_reads              179027                       # Number of floating instruction queue reads
system.cpu.iq.fp_inst_queue_wakeup_accesses        85736                       # Number of floating instruction queue wakeup accesses
system.cpu.iq.fp_inst_queue_writes             127424                       # Number of floating instruction queue writes
system.cpu.iq.fu_busy_cnt                           0                       # FU busy when requested
system.cpu.iq.fu_busy_rate                          0                       # FU busy rate (busy events/executed inst)
system.cpu.iq.fu_full::No_OpClass                   0                       # attempts to use FU when none available
system.cpu.iq.fu_full::IntAlu                       0                       # attempts to use FU when none available
system.cpu.iq.fu_full::IntMult                      0                       # attempts to use FU when none available
system.cpu.iq.fu_full::IntDiv                       0                       # attempts to use FU when none available
system.cpu.iq.fu_full::FloatAdd                     0                       # attempts to use FU when none available
system.cpu.iq.fu_full::FloatCmp                     0                       # attempts to use FU when none available
system.cpu.iq.fu_full::FloatCvt                     0                       # attempts to use FU when none available
system.cpu.iq.fu_full::FloatMult                    0                       # attempts to use FU when none available
system.cpu.iq.fu_full::FloatMultAcc                 0                       # attempts to use FU when none available
system.cpu.iq.fu_full::FloatDiv                     0                       # attempts to use FU when none available
system.cpu.iq.fu_full::FloatMisc                    0                       # attempts to use FU when none available
system.cpu.iq.fu_full::FloatSqrt                    0                       # attempts to use FU when none available
system.cpu.iq.fu_full::SimdAdd                      0                       # attempts to use FU when none available
system.cpu.iq.fu_full::SimdAddAcc                   0                       # attempts to use FU when none available
system.cpu.iq.fu_full::SimdAlu                      0                       # attempts to use FU when none available
system.cpu.iq.fu_full::SimdCmp                      0                       # attempts to use FU when none available
system.cpu.iq.fu_full::SimdCvt                      0                       # attempts to use FU when none available
system.cpu.iq.fu_full::SimdMisc                     0                       # attempts to use FU when none available
system.cpu.iq.fu_full::SimdMult                     0                       # attempts to use FU when none available
system.cpu.iq.fu_full::SimdMultAcc                  0                       # attempts to use FU when none available
system.cpu.iq.fu_full::SimdShift                    0                       # attempts to use FU when none available
system.cpu.iq.fu_full::SimdShiftAcc                 0                       # attempts to use FU when none available
system.cpu.iq.fu_full::SimdDiv                      0                       # attempts to use FU when none available
system.cpu.iq.fu_full::SimdSqrt                     0                       # attempts to use FU when none available
system.cpu.iq.fu_full::SimdFloatAdd                 0                       # attempts to use FU when none available
system.cpu.iq.fu_full::SimdFloatAlu                 0                       # attempts to use FU when none available
system.cpu.iq.fu_full::SimdFloatCmp                 0                       # attempts to use FU when none available
system.cpu.iq.fu_full::SimdFloatCvt                 0                       # attempts to use FU when none available
system.cpu.iq.fu_full::SimdFloatDiv                 0                       # attempts to use FU when none available
system.cpu.iq.fu_full::SimdFloatMisc                0                       # attempts to use FU when none available
system.cpu.iq.fu_full::SimdFloatMult                0                       # attempts to use FU when none available
system.cpu.iq.fu_full::SimdFloatMultAcc             0                       # attempts to use FU when none available
system.cpu.iq.fu_full::SimdFloatSqrt                0                       # attempts to use FU when none available
system.cpu.iq.fu_full::SimdReduceAdd                0                       # attempts to use FU when none available
system.cpu.iq.fu_full::SimdReduceAlu                0                       # attempts to use FU when none available
system.cpu.iq.fu_full::SimdReduceCmp                0                       # attempts to use FU when none available
system.cpu.iq.fu_full::SimdFloatReduceAdd            0                       # attempts to use FU when none available
system.cpu.iq.fu_full::SimdFloatReduceCmp            0                       # attempts to use FU when none available
system.cpu.iq.fu_full::SimdAes                      0                       # attempts to use FU when none available
system.cpu.iq.fu_full::SimdAesMix                   0                       # attempts to use FU when none available
system.cpu.iq.fu_full::SimdSha1Hash                 0                       # attempts to use FU when none available
system.cpu.iq.fu_full::SimdSha1Hash2                0                       # attempts to use FU when none available
system.cpu.iq.fu_full::SimdSha256Hash               0                       # attempts to use FU when none available
system.cpu.iq.fu_full::SimdSha256Hash2              0                       # attempts to use FU when none available
system.cpu.iq.fu_full::SimdShaSigma2                0                       # attempts to use FU when none available
system.cpu.iq.fu_full::SimdShaSigma3                0                       # attempts to use FU when none available
system.cpu.iq.fu_full::SimdPredAlu                  0                       # attempts to use FU when none available
system.cpu.iq.fu_full::MemRead                      0                       # attempts to use FU when none available
system.cpu.iq.fu_full::MemWrite                     0                       # attempts to use FU when none available
system.cpu.iq.fu_full::FloatMemRead                 0                       # attempts to use FU when none available
system.cpu.iq.fu_full::FloatMemWrite                0                       # attempts to use FU when none available
system.cpu.iq.fu_full::IprAccess                    0                       # attempts to use FU when none available
system.cpu.iq.fu_full::InstPrefetch                 0                       # attempts to use FU when none available
system.cpu.iq.int_alu_accesses                4008932                       # Number of integer alu accesses
system.cpu.iq.int_inst_queue_reads           10640967                       # Number of integer instruction queue reads
system.cpu.iq.int_inst_queue_wakeup_accesses      3981782                       # Number of integer instruction queue wakeup accesses
system.cpu.iq.int_inst_queue_writes           5204961                       # Number of integer instruction queue writes
system.cpu.iq.iqInstsAdded                    4442105                       # Number of instructions added to the IQ (excludes non-spec)
system.cpu.iq.iqInstsIssued                   4123897                       # Number of instructions issued
system.cpu.iq.iqNonSpecInstsAdded                1075                       # Number of non-speculative instructions added to the IQ
system.cpu.iq.iqSquashedInstsExamined          889124                       # Number of squashed instructions iterated over during squash; mainly for profiling
system.cpu.iq.iqSquashedInstsIssued             18276                       # Number of squashed instructions issued
system.cpu.iq.iqSquashedNonSpecRemoved            343                       # Number of squashed non-spec instructions that were removed
system.cpu.iq.iqSquashedOperandsExamined      1320326                       # Number of squashed operands that are examined and possibly removed from graph
system.cpu.iq.issued_per_cycle::samples       2553927                       # Number of insts issued each cycle
system.cpu.iq.issued_per_cycle::mean         1.614728                       # Number of insts issued each cycle
system.cpu.iq.issued_per_cycle::stdev        1.669867                       # Number of insts issued each cycle
system.cpu.iq.issued_per_cycle::underflows            0      0.00%      0.00% # Number of insts issued each cycle
system.cpu.iq.issued_per_cycle::0             1161157     45.47%     45.47% # Number of insts issued each cycle
system.cpu.iq.issued_per_cycle::1              171794      6.73%     52.19% # Number of insts issued each cycle
system.cpu.iq.issued_per_cycle::2              297841     11.66%     63.85% # Number of insts issued each cycle
system.cpu.iq.issued_per_cycle::3              336119     13.16%     77.02% # Number of insts issued each cycle
system.cpu.iq.issued_per_cycle::4              587016     22.98%    100.00% # Number of insts issued each cycle
system.cpu.iq.issued_per_cycle::overflows            0      0.00%    100.00% # Number of insts issued each cycle
system.cpu.iq.issued_per_cycle::min_value            0                       # Number of insts issued each cycle
system.cpu.iq.issued_per_cycle::max_value            4                       # Number of insts issued each cycle
system.cpu.iq.issued_per_cycle::total         2553927                       # Number of insts issued each cycle
system.cpu.iq.rate                           1.525746                       # Inst issue rate
system.cpu.iq.vec_alu_accesses                      0                       # Number of vector alu accesses
system.cpu.iq.vec_inst_queue_reads                  0                       # Number of vector instruction queue reads
system.cpu.iq.vec_inst_queue_wakeup_accesses            0                       # Number of vector instruction queue wakeup accesses
system.cpu.iq.vec_inst_queue_writes                 0                       # Number of vector instruction queue writes
system.cpu.itb.rdAccesses                           0                       # TLB accesses on read requests
system.cpu.itb.rdMisses                             0                       # TLB misses on read requests
system.cpu.itb.wrAccesses                      238029                       # TLB accesses on write requests
system.cpu.itb.wrMisses                           339                       # TLB misses on write requests
system.cpu.memDep0.conflictingLoads             11491                       # Number of conflicting loads.
system.cpu.memDep0.conflictingStores             4157                       # Number of conflicting stores.
system.cpu.memDep0.insertedLoads               603326                       # Number of loads inserted to the mem dependence unit.
system.cpu.memDep0.insertedStores              199875                       # Number of stores inserted to the mem dependence unit.
system.cpu.misc_regfile_reads                 1541921                       # number of misc regfile reads
system.cpu.misc_regfile_writes                    675                       # number of misc regfile writes
system.cpu.numCycles                          2702872                       # number of cpu cycles simulated
system.cpu.numWorkItemsCompleted                    0                       # number of work items this cpu completed
system.cpu.numWorkItemsStarted                      0                       # number of work items this cpu started
system.cpu.process.numSyscalls                     56                       # Number of system calls
system.cpu.rename.BlockCycles                  830883                       # Number of cycles rename is blocking
system.cpu.rename.CommittedMaps               4879302                       # Number of HB maps that are committed
system.cpu.rename.FullRegisterEvents              256                       # Number of times there has been no free registers
system.cpu.rename.IQFullEvents                  46168                       # Number of times rename has blocked due to IQ full
system.cpu.rename.IdleCycles                   339222                       # Number of cycles rename is idle
system.cpu.rename.LQFullEvents                  25089                       # Number of times rename has blocked due to LQ full
system.cpu.rename.ROBFullEvents                  6209                       # Number of times rename has blocked due to ROB full
system.cpu.rename.RenameLookups              11988715                       # Number of register rename lookups that rename has made
system.cpu.rename.RenamedInsts                4585542                       # Number of instructions processed by rename
system.cpu.rename.RenamedOperands             6279772                       # Number of destination operands rename has renamed
system.cpu.rename.RunCycles                   1160619                       # Number of cycles rename is running
system.cpu.rename.SQFullEvents                  71082                       # Number of times rename has blocked due to SQ full
system.cpu.rename.SquashCycles                  24375                       # Number of cycles rename is squashing
system.cpu.rename.UnblockCycles                179628                       # Number of cycles rename is unblocking
system.cpu.rename.UndoneMaps                  1400447                       # Number of HB maps that are undone due to squashing
system.cpu.rename.fp_rename_lookups            150701                       # Number of floating rename lookups
system.cpu.rename.int_rename_lookups          7289284                       # Number of integer rename lookups
system.cpu.rename.serializeStallCycles          19200                       # count of cycles rename stalled for serializing inst
system.cpu.rename.serializingInsts                869                       # count of serializing insts renamed
system.cpu.rename.skidInsts                    205578                       # count of insts added to the skid buffer
system.cpu.rename.tempSerializingInsts            913                       # count of temporary serializing insts renamed
system.cpu.rob.rob_reads                      6165304                       # The number of ROB reads
system.cpu.rob.rob_writes                     9129771                       # The number of ROB writes
system.cpu.timesIdled                            1465                       # Number of times that the entire CPU went into an idle state and unscheduled itself
system.l2bus.snoop_filter.hit_multi_requests            8                       # Number of requests hitting in the snoop filter with multiple (>1) holders of the requested data.
system.l2bus.snoop_filter.hit_multi_snoops            0                       # Number of snoops hitting in the snoop filter with multiple (>1) holders of the requested data.
system.l2bus.snoop_filter.hit_single_requests        18095                       # Number of requests hitting in the snoop filter with a single holder of the requested data.
system.l2bus.snoop_filter.hit_single_snoops          412                       # Number of snoops hitting in the snoop filter with a single holder of the requested data.
system.l2bus.snoop_filter.tot_requests          37470                       # Total number of requests made to the snoop filter.
system.l2bus.snoop_filter.tot_snoops              412                       # Total number of snoops made to the snoop filter.
system.l2cache.prefetcher.num_hwpf_issued          766                       # number of hwpf issued
system.l2cache.prefetcher.pfBufferHit               0                       # number of redundant prefetches already in prefetch queue
system.l2cache.prefetcher.pfIdentified            766                       # number of prefetch candidates identified
system.l2cache.prefetcher.pfInCache                 0                       # number of redundant prefetches already in cache/mshr dropped
system.l2cache.prefetcher.pfRemovedFull             0                       # number of prefetches dropped due to prefetch queue size
system.l2cache.prefetcher.pfSpanPage              162                       # number of prefetches that crossed the page
system.membus.snoop_filter.hit_multi_requests            0                       # Number of requests hitting in the snoop filter with multiple (>1) holders of the requested data.
system.membus.snoop_filter.hit_multi_snoops            0                       # Number of snoops hitting in the snoop filter with multiple (>1) holders of the requested data.
system.membus.snoop_filter.hit_single_requests         9197                       # Number of requests hitting in the snoop filter with a single holder of the requested data.
system.membus.snoop_filter.hit_single_snoops            0                       # Number of snoops hitting in the snoop filter with a single holder of the requested data.
system.membus.snoop_filter.tot_requests         22514                       # Total number of requests made to the snoop filter.
system.membus.snoop_filter.tot_snoops               0                       # Total number of snoops made to the snoop filter.
system.membus.pwrStateResidencyTicks::UNDEFINED   1081148400                       # Cumulative time (in ticks) in various power states
system.membus.trans_dist::ReadResp              11980                       # Transaction distribution
system.membus.trans_dist::WritebackDirty         1339                       # Transaction distribution
system.membus.trans_dist::CleanEvict             7858                       # Transaction distribution
system.membus.trans_dist::ReadExReq              1337                       # Transaction distribution
system.membus.trans_dist::ReadExResp             1337                       # Transaction distribution
system.membus.trans_dist::ReadSharedReq         11980                       # Transaction distribution
system.membus.pkt_count_system.l2cache.mem_side::system.mem_ctrl.port        35831                       # Packet count per connected master and slave (bytes)
system.membus.pkt_count_system.l2cache.mem_side::total        35831                       # Packet count per connected master and slave (bytes)
system.membus.pkt_count::total                  35831                       # Packet count per connected master and slave (bytes)
system.membus.pkt_size_system.l2cache.mem_side::system.mem_ctrl.port       937984                       # Cumulative packet size per connected master and slave (bytes)
system.membus.pkt_size_system.l2cache.mem_side::total       937984                       # Cumulative packet size per connected master and slave (bytes)
system.membus.pkt_size::total                  937984                       # Cumulative packet size per connected master and slave (bytes)
system.membus.snoops                                0                       # Total snoops (count)
system.membus.snoopTraffic                          0                       # Total snoop traffic (bytes)
system.membus.snoop_fanout::samples             13317                       # Request fanout histogram
system.membus.snoop_fanout::mean                    0                       # Request fanout histogram
system.membus.snoop_fanout::stdev                   0                       # Request fanout histogram
system.membus.snoop_fanout::underflows              0      0.00%      0.00% # Request fanout histogram
system.membus.snoop_fanout::0                   13317    100.00%    100.00% # Request fanout histogram
system.membus.snoop_fanout::1                       0      0.00%    100.00% # Request fanout histogram
system.membus.snoop_fanout::overflows               0      0.00%    100.00% # Request fanout histogram
system.membus.snoop_fanout::min_value               0                       # Request fanout histogram
system.membus.snoop_fanout::max_value               0                       # Request fanout histogram
system.membus.snoop_fanout::total               13317                       # Request fanout histogram
system.membus.reqLayer2.occupancy            11176378                       # Layer occupancy (ticks)
system.membus.reqLayer2.utilization               1.0                       # Layer utilization (%)
system.membus.respLayer0.occupancy           28924522                       # Layer occupancy (ticks)
system.membus.respLayer0.utilization              2.7                       # Layer utilization (%)
system.l2bus.pwrStateResidencyTicks::UNDEFINED   1081148400                       # Cumulative time (in ticks) in various power states
system.l2bus.trans_dist::ReadResp               17303                       # Transaction distribution
system.l2bus.trans_dist::WritebackDirty          4097                       # Transaction distribution
system.l2bus.trans_dist::CleanEvict             23273                       # Transaction distribution
system.l2bus.trans_dist::HardPFReq               1065                       # Transaction distribution
system.l2bus.trans_dist::ReadExReq               2072                       # Transaction distribution
system.l2bus.trans_dist::ReadExResp              2072                       # Transaction distribution
system.l2bus.trans_dist::ReadSharedReq          17303                       # Transaction distribution
system.l2bus.pkt_count_system.cpu.icache.mem_side::system.l2cache.cpu_side         7545                       # Packet count per connected master and slave (bytes)
system.l2bus.pkt_count_system.cpu.dcache.mem_side::system.l2cache.cpu_side        49298                       # Packet count per connected master and slave (bytes)
system.l2bus.pkt_count::total                   56843                       # Packet count per connected master and slave (bytes)
system.l2bus.pkt_size_system.cpu.icache.mem_side::system.l2cache.cpu_side       166336                       # Cumulative packet size per connected master and slave (bytes)
system.l2bus.pkt_size_system.cpu.dcache.mem_side::system.l2cache.cpu_side      1250048                       # Cumulative packet size per connected master and slave (bytes)
system.l2bus.pkt_size::total                  1416384                       # Cumulative packet size per connected master and slave (bytes)
system.l2bus.snoops                             10342                       # Total snoops (count)
system.l2bus.snoopTraffic                       85824                       # Total snoop traffic (bytes)
system.l2bus.snoop_fanout::samples              29715                       # Request fanout histogram
system.l2bus.snoop_fanout::mean              0.014134                       # Request fanout histogram
system.l2bus.snoop_fanout::stdev             0.118046                       # Request fanout histogram
system.l2bus.snoop_fanout::underflows               0      0.00%      0.00% # Request fanout histogram
system.l2bus.snoop_fanout::0                    29295     98.59%     98.59% # Request fanout histogram
system.l2bus.snoop_fanout::1                      420      1.41%    100.00% # Request fanout histogram
system.l2bus.snoop_fanout::2                        0      0.00%    100.00% # Request fanout histogram
system.l2bus.snoop_fanout::overflows                0      0.00%    100.00% # Request fanout histogram
system.l2bus.snoop_fanout::min_value                0                       # Request fanout histogram
system.l2bus.snoop_fanout::max_value                1                       # Request fanout histogram
system.l2bus.snoop_fanout::total                29715                       # Request fanout histogram
system.l2bus.respLayer1.occupancy            20129199                       # Layer occupancy (ticks)
system.l2bus.respLayer1.utilization               1.9                       # Layer utilization (%)
system.l2bus.reqLayer0.occupancy             18578063                       # Layer occupancy (ticks)
system.l2bus.reqLayer0.utilization                1.7                       # Layer utilization (%)
system.l2bus.respLayer0.occupancy             3121998                       # Layer occupancy (ticks)
system.l2bus.respLayer0.utilization               0.3                       # Layer utilization (%)
system.clk_domain.clock                           400                       # Clock period in ticks
system.clk_domain.voltage_domain.voltage            1                       # Voltage in Volts
system.cpu.pwrStateResidencyTicks::ON      1081148400                       # Cumulative time (in ticks) in various power states
system.cpu.icache.pwrStateResidencyTicks::UNDEFINED   1081148400                       # Cumulative time (in ticks) in various power states
system.cpu.icache.demand_hits::.cpu.inst       234630                       # number of demand (read+write) hits
system.cpu.icache.demand_hits::total           234630                       # number of demand (read+write) hits
system.cpu.icache.overall_hits::.cpu.inst       234630                       # number of overall hits
system.cpu.icache.overall_hits::total          234630                       # number of overall hits
system.cpu.icache.demand_misses::.cpu.inst         3298                       # number of demand (read+write) misses
system.cpu.icache.demand_misses::total           3298                       # number of demand (read+write) misses
system.cpu.icache.overall_misses::.cpu.inst         3298                       # number of overall misses
system.cpu.icache.overall_misses::total          3298                       # number of overall misses
system.cpu.icache.demand_miss_latency::.cpu.inst    168250800                       # number of demand (read+write) miss cycles
system.cpu.icache.demand_miss_latency::total    168250800                       # number of demand (read+write) miss cycles
system.cpu.icache.overall_miss_latency::.cpu.inst    168250800                       # number of overall miss cycles
system.cpu.icache.overall_miss_latency::total    168250800                       # number of overall miss cycles
system.cpu.icache.demand_accesses::.cpu.inst       237928                       # number of demand (read+write) accesses
system.cpu.icache.demand_accesses::total       237928                       # number of demand (read+write) accesses
system.cpu.icache.overall_accesses::.cpu.inst       237928                       # number of overall (read+write) accesses
system.cpu.icache.overall_accesses::total       237928                       # number of overall (read+write) accesses
system.cpu.icache.demand_miss_rate::.cpu.inst     0.013861                       # miss rate for demand accesses
system.cpu.icache.demand_miss_rate::total     0.013861                       # miss rate for demand accesses
system.cpu.icache.overall_miss_rate::.cpu.inst     0.013861                       # miss rate for overall accesses
system.cpu.icache.overall_miss_rate::total     0.013861                       # miss rate for overall accesses
system.cpu.icache.demand_avg_miss_latency::.cpu.inst 51016.009703                       # average overall miss latency
system.cpu.icache.demand_avg_miss_latency::total 51016.009703                       # average overall miss latency
system.cpu.icache.overall_avg_miss_latency::.cpu.inst 51016.009703                       # average overall miss latency
system.cpu.icache.overall_avg_miss_latency::total 51016.009703                       # average overall miss latency
system.cpu.icache.blocked_cycles::no_mshrs           39                       # number of cycles access was blocked
system.cpu.icache.blocked_cycles::no_targets            0                       # number of cycles access was blocked
system.cpu.icache.blocked::no_mshrs                 2                       # number of cycles access was blocked
system.cpu.icache.blocked::no_targets               0                       # number of cycles access was blocked
system.cpu.icache.avg_blocked_cycles::no_mshrs    19.500000                       # average number of cycles each access was blocked
system.cpu.icache.avg_blocked_cycles::no_targets          nan                       # average number of cycles each access was blocked
system.cpu.icache.demand_mshr_hits::.cpu.inst          697                       # number of demand (read+write) MSHR hits
system.cpu.icache.demand_mshr_hits::total          697                       # number of demand (read+write) MSHR hits
system.cpu.icache.overall_mshr_hits::.cpu.inst          697                       # number of overall MSHR hits
system.cpu.icache.overall_mshr_hits::total          697                       # number of overall MSHR hits
system.cpu.icache.demand_mshr_misses::.cpu.inst         2601                       # number of demand (read+write) MSHR misses
system.cpu.icache.demand_mshr_misses::total         2601                       # number of demand (read+write) MSHR misses
system.cpu.icache.overall_mshr_misses::.cpu.inst         2601                       # number of overall MSHR misses
system.cpu.icache.overall_mshr_misses::total         2601                       # number of overall MSHR misses
system.cpu.icache.demand_mshr_miss_latency::.cpu.inst    133215200                       # number of demand (read+write) MSHR miss cycles
system.cpu.icache.demand_mshr_miss_latency::total    133215200                       # number of demand (read+write) MSHR miss cycles
system.cpu.icache.overall_mshr_miss_latency::.cpu.inst    133215200                       # number of overall MSHR miss cycles
system.cpu.icache.overall_mshr_miss_latency::total    133215200                       # number of overall MSHR miss cycles
system.cpu.icache.demand_mshr_miss_rate::.cpu.inst     0.010932                       # mshr miss rate for demand accesses
system.cpu.icache.demand_mshr_miss_rate::total     0.010932                       # mshr miss rate for demand accesses
system.cpu.icache.overall_mshr_miss_rate::.cpu.inst     0.010932                       # mshr miss rate for overall accesses
system.cpu.icache.overall_mshr_miss_rate::total     0.010932                       # mshr miss rate for overall accesses
system.cpu.icache.demand_avg_mshr_miss_latency::.cpu.inst 51216.916571                       # average overall mshr miss latency
system.cpu.icache.demand_avg_mshr_miss_latency::total 51216.916571                       # average overall mshr miss latency
system.cpu.icache.overall_avg_mshr_miss_latency::.cpu.inst 51216.916571                       # average overall mshr miss latency
system.cpu.icache.overall_avg_mshr_miss_latency::total 51216.916571                       # average overall mshr miss latency
system.cpu.icache.replacements                   2345                       # number of replacements
system.cpu.icache.ReadReq_hits::.cpu.inst       234630                       # number of ReadReq hits
system.cpu.icache.ReadReq_hits::total          234630                       # number of ReadReq hits
system.cpu.icache.ReadReq_misses::.cpu.inst         3298                       # number of ReadReq misses
system.cpu.icache.ReadReq_misses::total          3298                       # number of ReadReq misses
system.cpu.icache.ReadReq_miss_latency::.cpu.inst    168250800                       # number of ReadReq miss cycles
system.cpu.icache.ReadReq_miss_latency::total    168250800                       # number of ReadReq miss cycles
system.cpu.icache.ReadReq_accesses::.cpu.inst       237928                       # number of ReadReq accesses(hits+misses)
system.cpu.icache.ReadReq_accesses::total       237928                       # number of ReadReq accesses(hits+misses)
system.cpu.icache.ReadReq_miss_rate::.cpu.inst     0.013861                       # miss rate for ReadReq accesses
system.cpu.icache.ReadReq_miss_rate::total     0.013861                       # miss rate for ReadReq accesses
system.cpu.icache.ReadReq_avg_miss_latency::.cpu.inst 51016.009703                       # average ReadReq miss latency
system.cpu.icache.ReadReq_avg_miss_latency::total 51016.009703                       # average ReadReq miss latency
system.cpu.icache.ReadReq_mshr_hits::.cpu.inst          697                       # number of ReadReq MSHR hits
system.cpu.icache.ReadReq_mshr_hits::total          697                       # number of ReadReq MSHR hits
system.cpu.icache.ReadReq_mshr_misses::.cpu.inst         2601                       # number of ReadReq MSHR misses
system.cpu.icache.ReadReq_mshr_misses::total         2601                       # number of ReadReq MSHR misses
system.cpu.icache.ReadReq_mshr_miss_latency::.cpu.inst    133215200                       # number of ReadReq MSHR miss cycles
system.cpu.icache.ReadReq_mshr_miss_latency::total    133215200                       # number of ReadReq MSHR miss cycles
system.cpu.icache.ReadReq_mshr_miss_rate::.cpu.inst     0.010932                       # mshr miss rate for ReadReq accesses
system.cpu.icache.ReadReq_mshr_miss_rate::total     0.010932                       # mshr miss rate for ReadReq accesses
system.cpu.icache.ReadReq_avg_mshr_miss_latency::.cpu.inst 51216.916571                       # average ReadReq mshr miss latency
system.cpu.icache.ReadReq_avg_mshr_miss_latency::total 51216.916571                       # average ReadReq mshr miss latency
system.cpu.icache.prefetcher.pwrStateResidencyTicks::UNDEFINED   1081148400                       # Cumulative time (in ticks) in various power states
system.cpu.icache.tags.pwrStateResidencyTicks::UNDEFINED   1081148400                       # Cumulative time (in ticks) in various power states
system.cpu.icache.tags.tagsinuse           253.453793                       # Cycle average of tags in use
system.cpu.icache.tags.total_refs              205425                       # Total number of references to valid blocks.
system.cpu.icache.tags.sampled_refs              2345                       # Sample count of references to valid blocks.
system.cpu.icache.tags.avg_refs             87.601279                       # Average number of references to valid blocks.
system.cpu.icache.tags.warmup_cycle             66400                       # Cycle when the warmup percentage was hit.
system.cpu.icache.tags.occ_blocks::.cpu.inst   253.453793                       # Average occupied blocks per requestor
system.cpu.icache.tags.occ_percent::.cpu.inst     0.990054                       # Average percentage of cache occupancy
system.cpu.icache.tags.occ_percent::total     0.990054                       # Average percentage of cache occupancy
system.cpu.icache.tags.occ_task_id_blocks::1024          256                       # Occupied blocks per task id
system.cpu.icache.tags.age_task_id_blocks_1024::0           75                       # Occupied blocks per task id
system.cpu.icache.tags.age_task_id_blocks_1024::1          155                       # Occupied blocks per task id
system.cpu.icache.tags.age_task_id_blocks_1024::2           26                       # Occupied blocks per task id
system.cpu.icache.tags.occ_task_id_percent::1024            1                       # Percentage of cache occupancy per task id
system.cpu.icache.tags.tag_accesses            478457                       # Number of tag accesses
system.cpu.icache.tags.data_accesses           478457                       # Number of data accesses
system.cpu.dtb.walker.pwrStateResidencyTicks::UNDEFINED   1081148400                       # Cumulative time (in ticks) in various power states
system.cpu.interrupts.clk_domain.clock           6400                       # Clock period in ticks
system.cpu.itb.walker.pwrStateResidencyTicks::UNDEFINED   1081148400                       # Cumulative time (in ticks) in various power states
system.cpu.dcache.pwrStateResidencyTicks::UNDEFINED   1081148400                       # Cumulative time (in ticks) in various power states
system.cpu.dcache.demand_hits::.cpu.data       664502                       # number of demand (read+write) hits
system.cpu.dcache.demand_hits::total           664502                       # number of demand (read+write) hits
system.cpu.dcache.overall_hits::.cpu.data       664502                       # number of overall hits
system.cpu.dcache.overall_hits::total          664502                       # number of overall hits
system.cpu.dcache.demand_misses::.cpu.data        34759                       # number of demand (read+write) misses
system.cpu.dcache.demand_misses::total          34759                       # number of demand (read+write) misses
system.cpu.dcache.overall_misses::.cpu.data        34759                       # number of overall misses
system.cpu.dcache.overall_misses::total         34759                       # number of overall misses
system.cpu.dcache.demand_miss_latency::.cpu.data   1685224799                       # number of demand (read+write) miss cycles
system.cpu.dcache.demand_miss_latency::total   1685224799                       # number of demand (read+write) miss cycles
system.cpu.dcache.overall_miss_latency::.cpu.data   1685224799                       # number of overall miss cycles
system.cpu.dcache.overall_miss_latency::total   1685224799                       # number of overall miss cycles
system.cpu.dcache.demand_accesses::.cpu.data       699261                       # number of demand (read+write) accesses
system.cpu.dcache.demand_accesses::total       699261                       # number of demand (read+write) accesses
system.cpu.dcache.overall_accesses::.cpu.data       699261                       # number of overall (read+write) accesses
system.cpu.dcache.overall_accesses::total       699261                       # number of overall (read+write) accesses
system.cpu.dcache.demand_miss_rate::.cpu.data     0.049708                       # miss rate for demand accesses
system.cpu.dcache.demand_miss_rate::total     0.049708                       # miss rate for demand accesses
system.cpu.dcache.overall_miss_rate::.cpu.data     0.049708                       # miss rate for overall accesses
system.cpu.dcache.overall_miss_rate::total     0.049708                       # miss rate for overall accesses
system.cpu.dcache.demand_avg_miss_latency::.cpu.data 48483.120890                       # average overall miss latency
system.cpu.dcache.demand_avg_miss_latency::total 48483.120890                       # average overall miss latency
system.cpu.dcache.overall_avg_miss_latency::.cpu.data 48483.120890                       # average overall miss latency
system.cpu.dcache.overall_avg_miss_latency::total 48483.120890                       # average overall miss latency
system.cpu.dcache.blocked_cycles::no_mshrs        27536                       # number of cycles access was blocked
system.cpu.dcache.blocked_cycles::no_targets          138                       # number of cycles access was blocked
system.cpu.dcache.blocked::no_mshrs               745                       # number of cycles access was blocked
system.cpu.dcache.blocked::no_targets               1                       # number of cycles access was blocked
system.cpu.dcache.avg_blocked_cycles::no_mshrs    36.961074                       # average number of cycles each access was blocked
system.cpu.dcache.avg_blocked_cycles::no_targets          138                       # average number of cycles each access was blocked
system.cpu.dcache.unused_prefetches              1740                       # number of HardPF blocks evicted w/o reference
system.cpu.dcache.writebacks::.writebacks         2758                       # number of writebacks
system.cpu.dcache.writebacks::total              2758                       # number of writebacks
system.cpu.dcache.demand_mshr_hits::.cpu.data        22203                       # number of demand (read+write) MSHR hits
system.cpu.dcache.demand_mshr_hits::total        22203                       # number of demand (read+write) MSHR hits
system.cpu.dcache.overall_mshr_hits::.cpu.data        22203                       # number of overall MSHR hits
system.cpu.dcache.overall_mshr_hits::total        22203                       # number of overall MSHR hits
system.cpu.dcache.demand_mshr_misses::.cpu.data        12556                       # number of demand (read+write) MSHR misses
system.cpu.dcache.demand_mshr_misses::total        12556                       # number of demand (read+write) MSHR misses
system.cpu.dcache.overall_mshr_misses::.cpu.data        12556                       # number of overall MSHR misses
system.cpu.dcache.overall_mshr_misses::.cpu.dcache.prefetcher         4218                       # number of overall MSHR misses
system.cpu.dcache.overall_mshr_misses::total        16774                       # number of overall MSHR misses
system.cpu.dcache.demand_mshr_miss_latency::.cpu.data    575635599                       # number of demand (read+write) MSHR miss cycles
system.cpu.dcache.demand_mshr_miss_latency::total    575635599                       # number of demand (read+write) MSHR miss cycles
system.cpu.dcache.overall_mshr_miss_latency::.cpu.data    575635599                       # number of overall MSHR miss cycles
system.cpu.dcache.overall_mshr_miss_latency::.cpu.dcache.prefetcher    241197940                       # number of overall MSHR miss cycles
system.cpu.dcache.overall_mshr_miss_latency::total    816833539                       # number of overall MSHR miss cycles
system.cpu.dcache.demand_mshr_miss_rate::.cpu.data     0.017956                       # mshr miss rate for demand accesses
system.cpu.dcache.demand_mshr_miss_rate::total     0.017956                       # mshr miss rate for demand accesses
system.cpu.dcache.overall_mshr_miss_rate::.cpu.data     0.017956                       # mshr miss rate for overall accesses
system.cpu.dcache.overall_mshr_miss_rate::.cpu.dcache.prefetcher          inf                       # mshr miss rate for overall accesses
system.cpu.dcache.overall_mshr_miss_rate::total     0.023988                       # mshr miss rate for overall accesses
system.cpu.dcache.demand_avg_mshr_miss_latency::.cpu.data 45845.460258                       # average overall mshr miss latency
system.cpu.dcache.demand_avg_mshr_miss_latency::total 45845.460258                       # average overall mshr miss latency
system.cpu.dcache.overall_avg_mshr_miss_latency::.cpu.data 45845.460258                       # average overall mshr miss latency
system.cpu.dcache.overall_avg_mshr_miss_latency::.cpu.dcache.prefetcher 57183.010906                       # average overall mshr miss latency
system.cpu.dcache.overall_avg_mshr_miss_latency::total 48696.407476                       # average overall mshr miss latency
system.cpu.dcache.replacements                  15750                       # number of replacements
system.cpu.dcache.ReadReq_hits::.cpu.data       497497                       # number of ReadReq hits
system.cpu.dcache.ReadReq_hits::total          497497                       # number of ReadReq hits
system.cpu.dcache.ReadReq_misses::.cpu.data        32652                       # number of ReadReq misses
system.cpu.dcache.ReadReq_misses::total         32652                       # number of ReadReq misses
system.cpu.dcache.ReadReq_miss_latency::.cpu.data   1581089200                       # number of ReadReq miss cycles
system.cpu.dcache.ReadReq_miss_latency::total   1581089200                       # number of ReadReq miss cycles
system.cpu.dcache.ReadReq_accesses::.cpu.data       530149                       # number of ReadReq accesses(hits+misses)
system.cpu.dcache.ReadReq_accesses::total       530149                       # number of ReadReq accesses(hits+misses)
system.cpu.dcache.ReadReq_miss_rate::.cpu.data     0.061590                       # miss rate for ReadReq accesses
system.cpu.dcache.ReadReq_miss_rate::total     0.061590                       # miss rate for ReadReq accesses
system.cpu.dcache.ReadReq_avg_miss_latency::.cpu.data 48422.430479                       # average ReadReq miss latency
system.cpu.dcache.ReadReq_avg_miss_latency::total 48422.430479                       # average ReadReq miss latency
system.cpu.dcache.ReadReq_mshr_hits::.cpu.data        22168                       # number of ReadReq MSHR hits
system.cpu.dcache.ReadReq_mshr_hits::total        22168                       # number of ReadReq MSHR hits
system.cpu.dcache.ReadReq_mshr_misses::.cpu.data        10484                       # number of ReadReq MSHR misses
system.cpu.dcache.ReadReq_mshr_misses::total        10484                       # number of ReadReq MSHR misses
system.cpu.dcache.ReadReq_mshr_miss_latency::.cpu.data    474476400                       # number of ReadReq MSHR miss cycles
system.cpu.dcache.ReadReq_mshr_miss_latency::total    474476400                       # number of ReadReq MSHR miss cycles
system.cpu.dcache.ReadReq_mshr_miss_rate::.cpu.data     0.019776                       # mshr miss rate for ReadReq accesses
system.cpu.dcache.ReadReq_mshr_miss_rate::total     0.019776                       # mshr miss rate for ReadReq accesses
system.cpu.dcache.ReadReq_avg_mshr_miss_latency::.cpu.data 45257.191911                       # average ReadReq mshr miss latency
system.cpu.dcache.ReadReq_avg_mshr_miss_latency::total 45257.191911                       # average ReadReq mshr miss latency
system.cpu.dcache.WriteReq_hits::.cpu.data       167005                       # number of WriteReq hits
system.cpu.dcache.WriteReq_hits::total         167005                       # number of WriteReq hits
system.cpu.dcache.WriteReq_misses::.cpu.data         2107                       # number of WriteReq misses
system.cpu.dcache.WriteReq_misses::total         2107                       # number of WriteReq misses
system.cpu.dcache.WriteReq_miss_latency::.cpu.data    104135599                       # number of WriteReq miss cycles
system.cpu.dcache.WriteReq_miss_latency::total    104135599                       # number of WriteReq miss cycles
system.cpu.dcache.WriteReq_accesses::.cpu.data       169112                       # number of WriteReq accesses(hits+misses)
system.cpu.dcache.WriteReq_accesses::total       169112                       # number of WriteReq accesses(hits+misses)
system.cpu.dcache.WriteReq_miss_rate::.cpu.data     0.012459                       # miss rate for WriteReq accesses
system.cpu.dcache.WriteReq_miss_rate::total     0.012459                       # miss rate for WriteReq accesses
system.cpu.dcache.WriteReq_avg_miss_latency::.cpu.data 49423.635026                       # average WriteReq miss latency
system.cpu.dcache.WriteReq_avg_miss_latency::total 49423.635026                       # average WriteReq miss latency
system.cpu.dcache.WriteReq_mshr_hits::.cpu.data           35                       # number of WriteReq MSHR hits
system.cpu.dcache.WriteReq_mshr_hits::total           35                       # number of WriteReq MSHR hits
system.cpu.dcache.WriteReq_mshr_misses::.cpu.data         2072                       # number of WriteReq MSHR misses
system.cpu.dcache.WriteReq_mshr_misses::total         2072                       # number of WriteReq MSHR misses
system.cpu.dcache.WriteReq_mshr_miss_latency::.cpu.data    101159199                       # number of WriteReq MSHR miss cycles
system.cpu.dcache.WriteReq_mshr_miss_latency::total    101159199                       # number of WriteReq MSHR miss cycles
[...]
system.l2cache.overall_mshr_misses::.cpu.dcache.prefetcher           56                       # number of overall MSHR misses
system.l2cache.overall_mshr_misses::total          623                       # number of overall MSHR misses
system.l2cache.demand_mshr_miss_latency::.cpu.inst     23715200                       # number of demand (read+write) MSHR miss cycles
system.l2cache.demand_mshr_miss_latency::.cpu.data     10177600                       # number of demand (read+write) MSHR miss cycles
system.l2cache.demand_mshr_miss_latency::.cpu.dcache.prefetcher      3354741                       # number of demand (read+write) MSHR miss cycles
system.l2cache.demand_mshr_miss_latency::total     37247541                       # number of demand (read+write) MSHR miss cycles
system.l2cache.overall_mshr_miss_latency::.cpu.inst     23715200                       # number of overall MSHR miss cycles
system.l2cache.overall_mshr_miss_latency::.cpu.data     10177600                       # number of overall MSHR miss cycles
system.l2cache.overall_mshr_miss_latency::.cpu.dcache.prefetcher      3354741                       # number of overall MSHR miss cycles
system.l2cache.overall_mshr_miss_latency::total     37247541                       # number of overall MSHR miss cycles
system.l2cache.demand_mshr_miss_rate::.cpu.inst     0.350707                       # mshr miss rate for demand accesses
system.l2cache.demand_mshr_miss_rate::.cpu.data     0.526316                       # mshr miss rate for demand accesses
system.l2cache.demand_mshr_miss_rate::.cpu.dcache.prefetcher     0.777778                       # mshr miss rate for demand accesses
system.l2cache.demand_mshr_miss_rate::total     0.407990                       # mshr miss rate for demand accesses
system.l2cache.overall_mshr_miss_rate::.cpu.inst     0.350707                       # mshr miss rate for overall accesses
system.l2cache.overall_mshr_miss_rate::.cpu.data     0.526316                       # mshr miss rate for overall accesses
system.l2cache.overall_mshr_miss_rate::.cpu.dcache.prefetcher     0.777778                       # mshr miss rate for overall accesses
system.l2cache.overall_mshr_miss_rate::total     0.407990                       # mshr miss rate for overall accesses
system.l2cache.demand_avg_mshr_miss_latency::.cpu.inst 59736.020151                       # average overall mshr miss latency
system.l2cache.demand_avg_mshr_miss_latency::.cpu.data 59868.235294                       # average overall mshr miss latency
system.l2cache.demand_avg_mshr_miss_latency::.cpu.dcache.prefetcher 59906.089286                       # average overall mshr miss latency
system.l2cache.demand_avg_mshr_miss_latency::total 59787.385233                       # average overall mshr miss latency
system.l2cache.overall_avg_mshr_miss_latency::.cpu.inst 59736.020151                       # average overall mshr miss latency
system.l2cache.overall_avg_mshr_miss_latency::.cpu.data 59868.235294                       # average overall mshr miss latency
system.l2cache.overall_avg_mshr_miss_latency::.cpu.dcache.prefetcher 59906.089286                       # average overall mshr miss latency
system.l2cache.overall_avg_mshr_miss_latency::total 59787.385233                       # average overall mshr miss latency
system.l2cache.replacements                       630                       # number of replacements
system.l2cache.WritebackDirty_hits::.writebacks           99                       # number of WritebackDirty hits
system.l2cache.WritebackDirty_hits::total           99                       # number of WritebackDirty hits
system.l2cache.WritebackDirty_accesses::.writebacks           99                       # number of WritebackDirty accesses(hits+misses)
system.l2cache.WritebackDirty_accesses::total           99                       # number of WritebackDirty accesses(hits+misses)
system.l2cache.CleanEvict_mshr_misses::.writebacks           18                       # number of CleanEvict MSHR misses
system.l2cache.CleanEvict_mshr_misses::total           18                       # number of CleanEvict MSHR misses
system.l2cache.CleanEvict_mshr_miss_rate::.writebacks          inf                       # mshr miss rate for CleanEvict accesses
system.l2cache.CleanEvict_mshr_miss_rate::total          inf                       # mshr miss rate for CleanEvict accesses
system.l2cache.UpgradeReq_hits::.cpu.data            1                       # number of UpgradeReq hits
system.l2cache.UpgradeReq_hits::total               1                       # number of UpgradeReq hits
system.l2cache.UpgradeReq_accesses::.cpu.data            1                       # number of UpgradeReq accesses(hits+misses)
system.l2cache.UpgradeReq_accesses::total            1                       # number of UpgradeReq accesses(hits+misses)
system.l2cache.ReadExReq_hits::.cpu.data            9                       # number of ReadExReq hits
system.l2cache.ReadExReq_hits::total                9                       # number of ReadExReq hits
system.l2cache.ReadExReq_misses::.cpu.data           19                       # number of ReadExReq misses
system.l2cache.ReadExReq_misses::total             19                       # number of ReadExReq misses
system.l2cache.ReadExReq_miss_latency::.cpu.data      1284800                       # number of ReadExReq miss cycles
system.l2cache.ReadExReq_miss_latency::total      1284800                       # number of ReadExReq miss cycles
system.l2cache.ReadExReq_accesses::.cpu.data           28                       # number of ReadExReq accesses(hits+misses)
system.l2cache.ReadExReq_accesses::total           28                       # number of ReadExReq accesses(hits+misses)
system.l2cache.ReadExReq_miss_rate::.cpu.data     0.678571                       # miss rate for ReadExReq accesses
system.l2cache.ReadExReq_miss_rate::total     0.678571                       # miss rate for ReadExReq accesses
system.l2cache.ReadExReq_avg_miss_latency::.cpu.data 67621.052632                       # average ReadExReq miss latency
system.l2cache.ReadExReq_avg_miss_latency::total 67621.052632                       # average ReadExReq miss latency
system.l2cache.ReadExReq_mshr_misses::.cpu.data           19                       # number of ReadExReq MSHR misses
system.l2cache.ReadExReq_mshr_misses::total           19                       # number of ReadExReq MSHR misses
system.l2cache.ReadExReq_mshr_miss_latency::.cpu.data      1132800                       # number of ReadExReq MSHR miss cycles
system.l2cache.ReadExReq_mshr_miss_latency::total      1132800                       # number of ReadExReq MSHR miss cycles
system.l2cache.ReadExReq_mshr_miss_rate::.cpu.data     0.678571                       # mshr miss rate for ReadExReq accesses
system.l2cache.ReadExReq_mshr_miss_rate::total     0.678571                       # mshr miss rate for ReadExReq accesses
system.l2cache.ReadExReq_avg_mshr_miss_latency::.cpu.data 59621.052632                       # average ReadExReq mshr miss latency
system.l2cache.ReadExReq_avg_mshr_miss_latency::total 59621.052632                       # average ReadExReq mshr miss latency
system.l2cache.ReadSharedReq_hits::.cpu.inst          735                       # number of ReadSharedReq hits
system.l2cache.ReadSharedReq_hits::.cpu.data          143                       # number of ReadSharedReq hits
system.l2cache.ReadSharedReq_hits::.cpu.dcache.prefetcher           16                       # number of ReadSharedReq hits
system.l2cache.ReadSharedReq_hits::total          894                       # number of ReadSharedReq hits
system.l2cache.ReadSharedReq_misses::.cpu.inst          397                       # number of ReadSharedReq misses
system.l2cache.ReadSharedReq_misses::.cpu.data          152                       # number of ReadSharedReq misses
system.l2cache.ReadSharedReq_misses::.cpu.dcache.prefetcher           56                       # number of ReadSharedReq misses
system.l2cache.ReadSharedReq_misses::total          605                       # number of ReadSharedReq misses
system.l2cache.ReadSharedReq_miss_latency::.cpu.inst     26883200                       # number of ReadSharedReq miss cycles
system.l2cache.ReadSharedReq_miss_latency::.cpu.data     10469600                       # number of ReadSharedReq miss cycles
system.l2cache.ReadSharedReq_miss_latency::.cpu.dcache.prefetcher      3802741                       # number of ReadSharedReq miss cycles
system.l2cache.ReadSharedReq_miss_latency::total     41155541                       # number of ReadSharedReq miss cycles
system.l2cache.ReadSharedReq_accesses::.cpu.inst         1132                       # number of ReadSharedReq accesses(hits+misses)
system.l2cache.ReadSharedReq_accesses::.cpu.data          295                       # number of ReadSharedReq accesses(hits+misses)
system.l2cache.ReadSharedReq_accesses::.cpu.dcache.prefetcher           72                       # number of ReadSharedReq accesses(hits+misses)
system.l2cache.ReadSharedReq_accesses::total         1499                       # number of ReadSharedReq accesses(hits+misses)
system.l2cache.ReadSharedReq_miss_rate::.cpu.inst     0.350707                       # miss rate for ReadSharedReq accesses
system.l2cache.ReadSharedReq_miss_rate::.cpu.data     0.515254                       # miss rate for ReadSharedReq accesses
system.l2cache.ReadSharedReq_miss_rate::.cpu.dcache.prefetcher     0.777778                       # miss rate for ReadSharedReq accesses
system.l2cache.ReadSharedReq_miss_rate::total     0.403602                       # miss rate for ReadSharedReq accesses
system.l2cache.ReadSharedReq_avg_miss_latency::.cpu.inst 67715.869018                       # average ReadSharedReq miss latency
system.l2cache.ReadSharedReq_avg_miss_latency::.cpu.data 68878.947368                       # average ReadSharedReq miss latency
system.l2cache.ReadSharedReq_avg_miss_latency::.cpu.dcache.prefetcher 67906.089286                       # average ReadSharedReq miss latency
system.l2cache.ReadSharedReq_avg_miss_latency::total 68025.687603                       # average ReadSharedReq miss latency
system.l2cache.ReadSharedReq_mshr_hits::.cpu.data            1                       # number of ReadSharedReq MSHR hits
system.l2cache.ReadSharedReq_mshr_hits::total            1                       # number of ReadSharedReq MSHR hits
system.l2cache.ReadSharedReq_mshr_misses::.cpu.inst          397                       # number of ReadSharedReq MSHR misses
system.l2cache.ReadSharedReq_mshr_misses::.cpu.data          151                       # number of ReadSharedReq MSHR misses
system.l2cache.ReadSharedReq_mshr_misses::.cpu.dcache.prefetcher           56                       # number of ReadSharedReq MSHR misses
system.l2cache.ReadSharedReq_mshr_misses::total          604                       # number of ReadSharedReq MSHR misses
system.l2cache.ReadSharedReq_mshr_miss_latency::.cpu.inst     23715200                       # number of ReadSharedReq MSHR miss cycles
system.l2cache.ReadSharedReq_mshr_miss_latency::.cpu.data      9044800                       # number of ReadSharedReq MSHR miss cycles
system.l2cache.ReadSharedReq_mshr_miss_latency::.cpu.dcache.prefetcher      3354741                       # number of ReadSharedReq MSHR miss cycles
system.l2cache.ReadSharedReq_mshr_miss_latency::total     36114741                       # number of ReadSharedReq MSHR miss cycles
system.l2cache.ReadSharedReq_mshr_miss_rate::.cpu.inst     0.350707                       # mshr miss rate for ReadSharedReq accesses
system.l2cache.ReadSharedReq_mshr_miss_rate::.cpu.data     0.511864                       # mshr miss rate for ReadSharedReq accesses
system.l2cache.ReadSharedReq_mshr_miss_rate::.cpu.dcache.prefetcher     0.777778                       # mshr miss rate for ReadSharedReq accesses
system.l2cache.ReadSharedReq_mshr_miss_rate::total     0.402935                       # mshr miss rate for ReadSharedReq accesses
system.l2cache.ReadSharedReq_avg_mshr_miss_latency::.cpu.inst 59736.020151                       # average ReadSharedReq mshr miss latency
system.l2cache.ReadSharedReq_avg_mshr_miss_latency::.cpu.data 59899.337748                       # average ReadSharedReq mshr miss latency
system.l2cache.ReadSharedReq_avg_mshr_miss_latency::.cpu.dcache.prefetcher 59906.089286                       # average ReadSharedReq mshr miss latency
system.l2cache.ReadSharedReq_avg_mshr_miss_latency::total 59792.617550                       # average ReadSharedReq mshr miss latency
system.l2cache.prefetcher.pwrStateResidencyTicks::UNDEFINED     65515600                       # Cumulative time (in ticks) in various power states
system.l2cache.tags.pwrStateResidencyTicks::UNDEFINED     65515600                       # Cumulative time (in ticks) in various power states
system.l2cache.tags.tagsinuse                    4096                       # Cycle average of tags in use
system.l2cache.tags.total_refs                  15605                       # Total number of references to valid blocks.
system.l2cache.tags.sampled_refs                 4726                       # Sample count of references to valid blocks.
system.l2cache.tags.avg_refs                 3.301947                       # Average number of references to valid blocks.
system.l2cache.tags.warmup_cycle                    0                       # Cycle when the warmup percentage was hit.
system.l2cache.tags.occ_blocks::.writebacks    35.993583                       # Average occupied blocks per requestor
system.l2cache.tags.occ_blocks::.cpu.inst  1100.753753                       # Average occupied blocks per requestor
system.l2cache.tags.occ_blocks::.cpu.data  1864.091452                       # Average occupied blocks per requestor
system.l2cache.tags.occ_blocks::.cpu.dcache.prefetcher   948.196093                       # Average occupied blocks per requestor
system.l2cache.tags.occ_blocks::.l2cache.prefetcher   146.965120                       # Average occupied blocks per requestor
system.l2cache.tags.occ_percent::.writebacks     0.008787                       # Average percentage of cache occupancy
system.l2cache.tags.occ_percent::.cpu.inst     0.268739                       # Average percentage of cache occupancy
system.l2cache.tags.occ_percent::.cpu.data     0.455100                       # Average percentage of cache occupancy
system.l2cache.tags.occ_percent::.cpu.dcache.prefetcher     0.231493                       # Average percentage of cache occupancy
system.l2cache.tags.occ_percent::.l2cache.prefetcher     0.035880                       # Average percentage of cache occupancy
system.l2cache.tags.occ_percent::total              1                       # Average percentage of cache occupancy
system.l2cache.tags.occ_task_id_blocks::1022         1024                       # Occupied blocks per task id
system.l2cache.tags.occ_task_id_blocks::1024         3072                       # Occupied blocks per task id
system.l2cache.tags.age_task_id_blocks_1022::0            8                       # Occupied blocks per task id
system.l2cache.tags.age_task_id_blocks_1022::1           92                       # Occupied blocks per task id
system.l2cache.tags.age_task_id_blocks_1022::2          920                       # Occupied blocks per task id
system.l2cache.tags.age_task_id_blocks_1022::3            4                       # Occupied blocks per task id
system.l2cache.tags.age_task_id_blocks_1024::0          171                       # Occupied blocks per task id
system.l2cache.tags.age_task_id_blocks_1024::1          611                       # Occupied blocks per task id
system.l2cache.tags.age_task_id_blocks_1024::2         2237                       # Occupied blocks per task id
system.l2cache.tags.age_task_id_blocks_1024::3           53                       # Occupied blocks per task id
system.l2cache.tags.occ_task_id_percent::1022     0.250000                       # Percentage of cache occupancy per task id
system.l2cache.tags.occ_task_id_percent::1024     0.750000                       # Percentage of cache occupancy per task id
system.l2cache.tags.tag_accesses                25022                       # Number of tag accesses
system.l2cache.tags.data_accesses               25022                       # Number of data accesses
system.mem_ctrl.pwrStateResidencyTicks::UNDEFINED     65515600                       # Cumulative time (in ticks) in various power states
system.mem_ctrl.bytes_read::.cpu.inst           25344                       # Number of bytes read from this memory
system.mem_ctrl.bytes_read::.cpu.data           10880                       # Number of bytes read from this memory
system.mem_ctrl.bytes_read::.cpu.dcache.prefetcher         3584                       # Number of bytes read from this memory
system.mem_ctrl.bytes_read::total               39808                       # Number of bytes read from this memory
system.mem_ctrl.bytes_inst_read::.cpu.inst        25344                       # Number of instructions bytes read from this memory
system.mem_ctrl.bytes_inst_read::total          25344                       # Number of instructions bytes read from this memory
system.mem_ctrl.bytes_written::.writebacks         2048                       # Number of bytes written to this memory
system.mem_ctrl.bytes_written::total             2048                       # Number of bytes written to this memory
system.mem_ctrl.num_reads::.cpu.inst              396                       # Number of read requests responded to by this memory
system.mem_ctrl.num_reads::.cpu.data              170                       # Number of read requests responded to by this memory
system.mem_ctrl.num_reads::.cpu.dcache.prefetcher           56                       # Number of read requests responded to by this memory
system.mem_ctrl.num_reads::total                  622                       # Number of read requests responded to by this memory
system.mem_ctrl.num_writes::.writebacks            32                       # Number of write requests responded to by this memory
system.mem_ctrl.num_writes::total                  32                       # Number of write requests responded to by this memory
system.mem_ctrl.bw_read::.cpu.inst          386839165                       # Total read bandwidth from this memory (bytes/s)
system.mem_ctrl.bw_read::.cpu.data          166067318                       # Total read bandwidth from this memory (bytes/s)
system.mem_ctrl.bw_read::.cpu.dcache.prefetcher     54704528                       # Total read bandwidth from this memory (bytes/s)
system.mem_ctrl.bw_read::total              607611012                       # Total read bandwidth from this memory (bytes/s)
system.mem_ctrl.bw_inst_read::.cpu.inst     386839165                       # Instruction read bandwidth from this memory (bytes/s)
system.mem_ctrl.bw_inst_read::total         386839165                       # Instruction read bandwidth from this memory (bytes/s)
system.mem_ctrl.bw_write::.writebacks        31259731                       # Write bandwidth from this memory (bytes/s)
system.mem_ctrl.bw_write::total              31259731                       # Write bandwidth from this memory (bytes/s)
system.mem_ctrl.bw_total::.writebacks        31259731                       # Total bandwidth to/from this memory (bytes/s)
system.mem_ctrl.bw_total::.cpu.inst         386839165                       # Total bandwidth to/from this memory (bytes/s)
system.mem_ctrl.bw_total::.cpu.data         166067318                       # Total bandwidth to/from this memory (bytes/s)
system.mem_ctrl.bw_total::.cpu.dcache.prefetcher     54704528                       # Total bandwidth to/from this memory (bytes/s)
system.mem_ctrl.bw_total::total             638870742                       # Total bandwidth to/from this memory (bytes/s)

---------- End Simulation Statistics   ----------
