
---------- Begin Simulation Statistics ----------
final_tick                                 1101821200                       # Number of ticks from beginning of simulation (restored from checkpoints and never reset)
host_inst_rate                                 136423                       # Simulator instruction rate (inst/s)
host_mem_usage                                4408884                       # Number of bytes of host memory used
host_op_rate                                   237895                       # Simulator op (including micro ops) rate (op/s)
host_seconds                                    15.20                       # Real time elapsed on the host
host_tick_rate                               72473482                       # Simulator tick rate (ticks/s)
sim_freq                                 1000000000000                       # Frequency of simulated ticks
sim_insts                                     2074043                       # Number of instructions simulated
sim_ops                                       3616739                       # Number of ops (including micro ops) simulated
sim_seconds                                  0.001102                       # Number of seconds simulated
sim_ticks                                  1101821200                       # Number of ticks simulated
system.cpu.branchPred.BTBCorrect                    0                       # Number of correct BTB predictions (this stat may not work properly.
system.cpu.branchPred.BTBHitPct              0.000000                       # BTB Hit Percentage
system.cpu.branchPred.BTBHits                       0                       # Number of BTB hits
system.cpu.branchPred.BTBLookups               435760                       # Number of BTB lookups
system.cpu.branchPred.RASInCorrect                 14                       # Number of incorrect RAS predictions.
system.cpu.branchPred.condIncorrect             24456                       # Number of conditional branches incorrect
system.cpu.branchPred.condPredicted            467205                       # Number of conditional branches predicted
system.cpu.branchPred.indirectHits             238815                       # Number of indirect target hits.
system.cpu.branchPred.indirectLookups          435760                       # Number of indirect predictor lookups.
system.cpu.branchPred.indirectMisses           196945                       # Number of indirect misses.
system.cpu.branchPred.lookups                  494934                       # Number of BP lookups
system.cpu.branchPred.usedRAS                   12023                       # Number of times the RAS was used to get a target.
system.cpu.branchPredindirectMispredicted        12568                       # Number of mispredicted indirect branches.
system.cpu.cc_regfile_reads                   2379934                       # number of cc regfile reads
system.cpu.cc_regfile_writes                  1926883                       # number of cc regfile writes
system.cpu.commit.amos                              0                       # Number of atomic instructions committed
system.cpu.commit.branchMispredicts             24572                       # The number of times a branch was mispredicted
system.cpu.commit.branches                     350164                       # Number of branches committed
system.cpu.commit.bw_lim_events                603102                       # number cycles where commit BW limit reached
system.cpu.commit.commitNonSpecStalls             842                       # The number of times commit has been forced to stall to communicate backwards
system.cpu.commit.commitSquashedInsts          886860                       # The number of squashed insts skipped by commit
system.cpu.commit.committedInsts              2074043                       # Number of instructions committed
system.cpu.commit.committedOps                3616739                       # Number of ops (including micro ops) committed
system.cpu.commit.committed_per_cycle::samples      2343059                       # Number of insts commited each cycle
system.cpu.commit.committed_per_cycle::mean     1.543597                       # Number of insts commited each cycle
system.cpu.commit.committed_per_cycle::stdev     1.727459                       # Number of insts commited each cycle
system.cpu.commit.committed_per_cycle::underflows            0      0.00%      0.00% # Number of insts commited each cycle
system.cpu.commit.committed_per_cycle::0      1165618     49.75%     49.75% # Number of insts commited each cycle
system.cpu.commit.committed_per_cycle::1       174743      7.46%     57.21% # Number of insts commited each cycle
system.cpu.commit.committed_per_cycle::2       169200      7.22%     64.43% # Number of insts commited each cycle
system.cpu.commit.committed_per_cycle::3       230396      9.83%     74.26% # Number of insts commited each cycle
system.cpu.commit.committed_per_cycle::4       603102     25.74%    100.00% # Number of insts commited each cycle
system.cpu.commit.committed_per_cycle::overflows            0      0.00%    100.00% # Number of insts commited each cycle
system.cpu.commit.committed_per_cycle::min_value            0                       # Number of insts commited each cycle
system.cpu.commit.committed_per_cycle::max_value            4                       # Number of insts commited each cycle
system.cpu.commit.committed_per_cycle::total      2343059                       # Number of insts commited each cycle
system.cpu.commit.fp_insts                      75415                       # Number of committed floating point instructions.
system.cpu.commit.function_calls                10113                       # Number of function calls committed.
system.cpu.commit.int_insts                   3561304                       # Number of committed integer instructions.
system.cpu.commit.loads                        500283                       # Number of loads committed
system.cpu.commit.membars                           1                       # Number of memory barriers committed
system.cpu.commit.op_class_0::No_OpClass        20468      0.57%      0.57% # Class of committed instruction
system.cpu.commit.op_class_0::IntAlu          2840610     78.54%     79.11% # Class of committed instruction
system.cpu.commit.op_class_0::IntMult             129      0.00%     79.11% # Class of committed instruction
system.cpu.commit.op_class_0::IntDiv            37797      1.05%     80.16% # Class of committed instruction
system.cpu.commit.op_class_0::FloatAdd           2941      0.08%     80.24% # Class of committed instruction
system.cpu.commit.op_class_0::FloatCmp              0      0.00%     80.24% # Class of committed instruction
system.cpu.commit.op_class_0::FloatCvt           1376      0.04%     80.27% # Class of committed instruction
system.cpu.commit.op_class_0::FloatMult             0      0.00%     80.27% # Class of committed instruction
system.cpu.commit.op_class_0::FloatMultAcc            0      0.00%     80.27% # Class of committed instruction
system.cpu.commit.op_class_0::FloatDiv              0      0.00%     80.27% # Class of committed instruction
system.cpu.commit.op_class_0::FloatMisc             0      0.00%     80.27% # Class of committed instruction
system.cpu.commit.op_class_0::FloatSqrt             0      0.00%     80.27% # Class of committed instruction
system.cpu.commit.op_class_0::SimdAdd            6320      0.17%     80.45% # Class of committed instruction
system.cpu.commit.op_class_0::SimdAddAcc            0      0.00%     80.45% # Class of committed instruction
system.cpu.commit.op_class_0::SimdAlu           11353      0.31%     80.76% # Class of committed instruction
system.cpu.commit.op_class_0::SimdCmp               0      0.00%     80.76% # Class of committed instruction
system.cpu.commit.op_class_0::SimdCvt           12382      0.34%     81.11% # Class of committed instruction
system.cpu.commit.op_class_0::SimdMisc           6689      0.18%     81.29% # Class of committed instruction
system.cpu.commit.op_class_0::SimdMult              0      0.00%     81.29% # Class of committed instruction
system.cpu.commit.op_class_0::SimdMultAcc            0      0.00%     81.29% # Class of committed instruction
system.cpu.commit.op_class_0::SimdShift          1200      0.03%     81.32% # Class of committed instruction
system.cpu.commit.op_class_0::SimdShiftAcc            0      0.00%     81.32% # Class of committed instruction
system.cpu.commit.op_class_0::SimdDiv               0      0.00%     81.32% # Class of committed instruction
system.cpu.commit.op_class_0::SimdSqrt              0      0.00%     81.32% # Class of committed instruction
system.cpu.commit.op_class_0::SimdFloatAdd            0      0.00%     81.32% # Class of committed instruction
system.cpu.commit.op_class_0::SimdFloatAlu            0      0.00%     81.32% # Class of committed instruction
system.cpu.commit.op_class_0::SimdFloatCmp            0      0.00%     81.32% # Class of committed instruction
system.cpu.commit.op_class_0::SimdFloatCvt            0      0.00%     81.32% # Class of committed instruction
system.cpu.commit.op_class_0::SimdFloatDiv            0      0.00%     81.32% # Class of committed instruction
system.cpu.commit.op_class_0::SimdFloatMisc            0      0.00%     81.32% # Class of committed instruction
system.cpu.commit.op_class_0::SimdFloatMult            0      0.00%     81.32% # Class of committed instruction
system.cpu.commit.op_class_0::SimdFloatMultAcc            0      0.00%     81.32% # Class of committed instruction
system.cpu.commit.op_class_0::SimdFloatSqrt            0      0.00%     81.32% # Class of committed instruction
system.cpu.commit.op_class_0::SimdReduceAdd            0      0.00%     81.32% # Class of committed instruction
system.cpu.commit.op_class_0::SimdReduceAlu            0      0.00%     81.32% # Class of committed instruction
system.cpu.commit.op_class_0::SimdReduceCmp            0      0.00%     81.32% # Class of committed instruction
system.cpu.commit.op_class_0::SimdFloatReduceAdd            0      0.00%     81.32% # Class of committed instruction
system.cpu.commit.op_class_0::SimdFloatReduceCmp            0      0.00%     81.32% # Class of committed instruction
system.cpu.commit.op_class_0::SimdAes               0      0.00%     81.32% # Class of committed instruction
system.cpu.commit.op_class_0::SimdAesMix            0      0.00%     81.32% # Class of committed instruction
system.cpu.commit.op_class_0::SimdSha1Hash            0      0.00%     81.32% # Class of committed instruction
system.cpu.commit.op_class_0::SimdSha1Hash2            0      0.00%     81.32% # Class of committed instruction
system.cpu.commit.op_class_0::SimdSha256Hash            0      0.00%     81.32% # Class of committed instruction
system.cpu.commit.op_class_0::SimdSha256Hash2            0      0.00%     81.32% # Class of committed instruction
system.cpu.commit.op_class_0::SimdShaSigma2            0      0.00%     81.32% # Class of committed instruction
system.cpu.commit.op_class_0::SimdShaSigma3            0      0.00%     81.32% # Class of committed instruction
system.cpu.commit.op_class_0::SimdPredAlu            0      0.00%     81.32% # Class of committed instruction
system.cpu.commit.op_class_0::MemRead          480477     13.28%     94.61% # Class of committed instruction
system.cpu.commit.op_class_0::MemWrite         162692      4.50%     99.11% # Class of committed instruction
system.cpu.commit.op_class_0::FloatMemRead        19806      0.55%     99.65% # Class of committed instruction
system.cpu.commit.op_class_0::FloatMemWrite        12499      0.35%    100.00% # Class of committed instruction
system.cpu.commit.op_class_0::IprAccess             0      0.00%    100.00% # Class of committed instruction
system.cpu.commit.op_class_0::InstPrefetch            0      0.00%    100.00% # Class of committed instruction
system.cpu.commit.op_class_0::total           3616739                       # Class of committed instruction
system.cpu.commit.refs                         675474                       # Number of memory references committed
system.cpu.commit.swp_count                         0                       # Number of s/w prefetches committed
system.cpu.commit.vec_insts                         0                       # Number of committed Vector instructions.
system.cpu.committedInsts                     2074043                       # Number of Instructions Simulated
system.cpu.committedOps                       3616739                       # Number of Ops (including micro ops) Simulated
system.cpu.cpi                               1.328108                       # CPI: Cycles Per Instruction
system.cpu.cpi_total                         1.328108                       # CPI: Total CPI of All Threads
system.cpu.dcache.prefetcher.num_hwpf_issued         8068                       # number of hwpf issued
system.cpu.dcache.prefetcher.pfBufferHit        33727                       # number of redundant prefetches already in prefetch queue
system.cpu.dcache.prefetcher.pfIdentified        49410                       # number of prefetch candidates identified
system.cpu.dcache.prefetcher.pfInCache              0                       # number of redundant prefetches already in cache/mshr dropped
system.cpu.dcache.prefetcher.pfRemovedFull            0                       # number of prefetches dropped due to prefetch queue size
system.cpu.dcache.prefetcher.pfSpanPage          4370                       # number of prefetches that crossed the page
system.cpu.decode.BlockedCycles               1024665                       # Number of cycles decode is blocked
system.cpu.decode.DecodedInsts                4722390                       # Number of instructions handled by decode
system.cpu.decode.IdleCycles                   299069                       # Number of cycles decode is idle
system.cpu.decode.RunCycles                   1149817                       # Number of cycles decode is running
system.cpu.decode.SquashCycles                  24633                       # Number of cycles decode is squashing
system.cpu.decode.UnblockCycles                 86809                       # Number of cycles decode is unblocking
system.cpu.dtb.rdAccesses                      584105                       # TLB accesses on read requests
system.cpu.dtb.rdMisses                          2112                       # TLB misses on read requests
system.cpu.dtb.wrAccesses                      195223                       # TLB accesses on write requests
system.cpu.dtb.wrMisses                           170                       # TLB misses on write requests
system.cpu.fetch.Branches                      494934                       # Number of branches that fetch encountered
system.cpu.fetch.CacheLines                    242255                       # Number of cache lines fetched
system.cpu.fetch.Cycles                       2224273                       # Number of cycles fetch has run and was not squashing or blocked
system.cpu.fetch.IcacheSquashes                  4678                       # Number of outstanding Icache misses that were squashed
system.cpu.fetch.IcacheWaitRetryStallCycles           27                       # Number of stall cycles due to full MSHR
system.cpu.fetch.Insts                        2843436                       # Number of instructions fetch has processed
system.cpu.fetch.MiscStallCycles                  124                       # Number of cycles fetch has spent waiting on interrupts, or bad addresses, or out of MSHRs
system.cpu.fetch.PendingQuiesceStallCycles            6                       # Number of stall cycles due to pending quiesce instructions
system.cpu.fetch.PendingTrapStallCycles           774                       # Number of stall cycles due to pending traps
system.cpu.fetch.SquashCycles                   49266                       # Number of cycles fetch has spent squashing
system.cpu.fetch.branchRate                  0.179678                       # Number of branch fetches per cycle
system.cpu.fetch.icacheStallCycles             335156                       # Number of cycles fetch is stalled on an Icache miss
system.cpu.fetch.predictedBranches             250838                       # Number of branches that fetch has predicted taken
system.cpu.fetch.rate                        1.032267                       # Number of inst fetches per cycle
system.cpu.fetch.rateDist::samples            2584993                       # Number of instructions fetched each cycle (Total)
system.cpu.fetch.rateDist::mean              1.933621                       # Number of instructions fetched each cycle (Total)
system.cpu.fetch.rateDist::stdev             1.930780                       # Number of instructions fetched each cycle (Total)
system.cpu.fetch.rateDist::underflows               0      0.00%      0.00% # Number of instructions fetched each cycle (Total)
system.cpu.fetch.rateDist::0                  1230934     47.62%     47.62% # Number of instructions fetched each cycle (Total)
system.cpu.fetch.rateDist::1                    73657      2.85%     50.47% # Number of instructions fetched each cycle (Total)
system.cpu.fetch.rateDist::2                    59805      2.31%     52.78% # Number of instructions fetched each cycle (Total)
system.cpu.fetch.rateDist::3                    77258      2.99%     55.77% # Number of instructions fetched each cycle (Total)
system.cpu.fetch.rateDist::4                  1143339     44.23%    100.00% # Number of instructions fetched each cycle (Total)
system.cpu.fetch.rateDist::overflows                0      0.00%    100.00% # Number of instructions fetched each cycle (Total)
system.cpu.fetch.rateDist::min_value                0                       # Number of instructions fetched each cycle (Total)
system.cpu.fetch.rateDist::max_value                4                       # Number of instructions fetched each cycle (Total)
system.cpu.fetch.rateDist::total              2584993                       # Number of instructions fetched each cycle (Total)
system.cpu.fp_regfile_reads                    121614                       # number of floating regfile reads
system.cpu.fp_regfile_writes                    66921                       # number of floating regfile writes
system.cpu.fuPool.fu_ticks_busy::IntALU(0)    218040000                       # Total ticks fu was busy
system.cpu.fuPool.fu_ticks_busy::IntALU(1)    218040000                       # Total ticks fu was busy
system.cpu.fuPool.fu_ticks_busy::IntALU(2)    218039600                       # Total ticks fu was busy
system.cpu.fuPool.fu_ticks_busy::IntALU(3)    218039600                       # Total ticks fu was busy
system.cpu.fuPool.fu_ticks_busy::IntALU(4)    218039600                       # Total ticks fu was busy
system.cpu.fuPool.fu_ticks_busy::IntALU(5)    218039600                       # Total ticks fu was busy
system.cpu.fuPool.fu_ticks_busy::IntMultDiv(0)      8346800                       # Total ticks fu was busy
system.cpu.fuPool.fu_ticks_busy::IntMultDiv(1)      8346800                       # Total ticks fu was busy
system.cpu.fuPool.fu_ticks_busy::FP_ALU(0)       582000                       # Total ticks fu was busy
system.cpu.fuPool.fu_ticks_busy::FP_ALU(1)       581600                       # Total ticks fu was busy
system.cpu.fuPool.fu_ticks_busy::FP_ALU(2)       581200                       # Total ticks fu was busy
system.cpu.fuPool.fu_ticks_busy::FP_ALU(3)       581200                       # Total ticks fu was busy
system.cpu.fuPool.fu_ticks_busy::FP_MultDiv(0)            0                       # Total ticks fu was busy
system.cpu.fuPool.fu_ticks_busy::FP_MultDiv(1)            0                       # Total ticks fu was busy
system.cpu.fuPool.fu_ticks_busy::SIMD_Unit(0)      4508800                       # Total ticks fu was busy
system.cpu.fuPool.fu_ticks_busy::SIMD_Unit(1)      4548000                       # Total ticks fu was busy
system.cpu.fuPool.fu_ticks_busy::SIMD_Unit(2)      4576400                       # Total ticks fu was busy
system.cpu.fuPool.fu_ticks_busy::SIMD_Unit(3)      4532800                       # Total ticks fu was busy
system.cpu.fuPool.fu_ticks_busy::PredALU(0)            0                       # Total ticks fu was busy
system.cpu.fuPool.fu_ticks_busy::RdWrPort(0)     79370400                       # Total ticks fu was busy
system.cpu.fuPool.fu_ticks_busy::RdWrPort(1)     79411200                       # Total ticks fu was busy
system.cpu.fuPool.fu_ticks_busy::RdWrPort(2)     79363200                       # Total ticks fu was busy
system.cpu.fuPool.fu_ticks_busy::RdWrPort(3)     79398000                       # Total ticks fu was busy
system.cpu.fuPool.fu_ticks_busy::IprPort(0)            0                       # Total ticks fu was busy
system.cpu.fuPool.fu_ticks_busy::total     1662966800                       # Total ticks fu was busy
system.cpu.icache.prefetcher.num_hwpf_issued            0                       # number of hwpf issued
system.cpu.icache.prefetcher.pfBufferHit            0                       # number of redundant prefetches already in prefetch queue
system.cpu.icache.prefetcher.pfIdentified            0                       # number of prefetch candidates identified
system.cpu.icache.prefetcher.pfInCache              0                       # number of redundant prefetches already in cache/mshr dropped
system.cpu.icache.prefetcher.pfRemovedFull            0                       # number of prefetches dropped due to prefetch queue size
system.cpu.icache.prefetcher.pfSpanPage             0                       # number of prefetches that crossed the page
system.cpu.idleCycles                          169561                       # Total number of cycles that the CPU has spent unscheduled due to idling
system.cpu.iew.branchMispredicts                29170                       # Number of branch mispredicts detected at execute
system.cpu.iew.exec_branches                   380842                       # Number of branches executed
system.cpu.iew.exec_nop                             0                       # number of nop insts executed
system.cpu.iew.exec_rate                     1.506334                       # Inst execution rate
system.cpu.iew.exec_refs                       780844                       # number of memory reference insts executed
system.cpu.iew.exec_stores                     195211                       # Number of stores executed
system.cpu.iew.exec_swp                             0                       # number of swp insts executed
system.cpu.iew.iewBlockCycles                  701400                       # Number of cycles IEW is blocking
system.cpu.iew.iewDispLoadInsts                616694                       # Number of dispatched load instructions
system.cpu.iew.iewDispNonSpecInsts               1039                       # Number of dispatched non-speculative instructions
system.cpu.iew.iewDispSquashedInsts               559                       # Number of squashed instructions skipped by dispatch
system.cpu.iew.iewDispStoreInsts               205836                       # Number of dispatched store instructions
system.cpu.iew.iewDispatchedInsts             4503550                       # Number of instructions dispatched to IQ
system.cpu.iew.iewExecLoadInsts                585633                       # Number of load instructions executed
system.cpu.iew.iewExecSquashedInsts             34608                       # Number of squashed instructions skipped in execute
system.cpu.iew.iewExecutedInsts               4149278                       # Number of executed instructions
system.cpu.iew.iewIQFullEvents                   3345                       # Number of times the IQ has become full, causing a stall
system.cpu.iew.iewIdleCycles                        0                       # Number of cycles IEW is idle
system.cpu.iew.iewLSQFullEvents                  8302                       # Number of times the LSQ has become full, causing a stall
system.cpu.iew.iewSquashCycles                  24633                       # Number of cycles IEW is squashing
system.cpu.iew.iewUnblockCycles                 14610                       # Number of cycles IEW is unblocking
system.cpu.iew.lsq.thread0.blockedLoads             0                       # Number of blocked loads due to partial load-store forwarding
system.cpu.iew.lsq.thread0.cacheBlocked           596                       # Number of times an access to memory failed due to the cache being blocked
system.cpu.iew.lsq.thread0.forwLoads            40079                       # Number of loads that had data forwarded from stores
system.cpu.iew.lsq.thread0.ignoredResponses          249                       # Number of memory responses ignored because the instruction is squashed
system.cpu.iew.lsq.thread0.invAddrLoads             0                       # Number of loads ignored due to an invalid address
system.cpu.iew.lsq.thread0.invAddrSwpfs             0                       # Number of software prefetches ignored due to an invalid address
system.cpu.iew.lsq.thread0.memOrderViolation           71                       # Number of memory ordering violations
system.cpu.iew.lsq.thread0.rescheduledLoads            0                       # Number of loads that were rescheduled
system.cpu.iew.lsq.thread0.squashedLoads       116409                       # Number of loads squashed
system.cpu.iew.lsq.thread0.squashedStores        30644                       # Number of stores squashed
system.cpu.iew.memOrderViolationEvents             71                       # Number of memory order violations
system.cpu.iew.predictedNotTakenIncorrect        21175                       # Number of branches that were predicted not taken incorrectly
system.cpu.iew.predictedTakenIncorrect           7995                       # Number of branches that were predicted taken incorrectly
system.cpu.iew.wb_consumers                   5788043                       # num instructions consuming a value
system.cpu.iew.wb_count                       4127209                       # cumulative count of insts written-back
system.cpu.iew.wb_fanout                     0.568089                       # average fanout of values written-back
system.cpu.iew.wb_producers                   3288121                       # num instructions producing a value
system.cpu.iew.wb_rate                       1.498322                       # insts written-back per cycle
system.cpu.iew.wb_sent                        4134389                       # cumulative count of insts sent to commit
system.cpu.int_regfile_reads                  6426266                       # number of integer regfile reads
system.cpu.int_regfile_writes                 3559229                       # number of integer regfile writes
system.cpu.ipc                               0.752951                       # IPC: Instructions Per Cycle
system.cpu.ipc_total                         0.752951                       # IPC: Total IPC of All Threads
system.cpu.iq.FU_type_0::No_OpClass             26469      0.63%      0.63% # Type of FU issued
system.cpu.iq.FU_type_0::IntAlu               3270597     78.17%     78.80% # Type of FU issued
system.cpu.iq.FU_type_0::IntMult                  156      0.00%     78.81% # Type of FU issued
system.cpu.iq.FU_type_0::IntDiv                 41578      0.99%     79.80% # Type of FU issued
system.cpu.iq.FU_type_0::FloatAdd                4365      0.10%     79.91% # Type of FU issued
system.cpu.iq.FU_type_0::FloatCmp                   0      0.00%     79.91% # Type of FU issued
system.cpu.iq.FU_type_0::FloatCvt                1450      0.03%     79.94% # Type of FU issued
system.cpu.iq.FU_type_0::FloatMult                  0      0.00%     79.94% # Type of FU issued
system.cpu.iq.FU_type_0::FloatMultAcc               0      0.00%     79.94% # Type of FU issued
system.cpu.iq.FU_type_0::FloatDiv                   0      0.00%     79.94% # Type of FU issued
system.cpu.iq.FU_type_0::FloatMisc                  0      0.00%     79.94% # Type of FU issued
system.cpu.iq.FU_type_0::FloatSqrt                  0      0.00%     79.94% # Type of FU issued
system.cpu.iq.FU_type_0::SimdAdd                 6913      0.17%     80.11% # Type of FU issued
system.cpu.iq.FU_type_0::SimdAddAcc                 0      0.00%     80.11% # Type of FU issued
system.cpu.iq.FU_type_0::SimdAlu                15105      0.36%     80.47% # Type of FU issued
system.cpu.iq.FU_type_0::SimdCmp                    0      0.00%     80.47% # Type of FU issued
system.cpu.iq.FU_type_0::SimdCvt                14013      0.33%     80.80% # Type of FU issued
system.cpu.iq.FU_type_0::SimdMisc                7231      0.17%     80.97% # Type of FU issued
system.cpu.iq.FU_type_0::SimdMult                   0      0.00%     80.97% # Type of FU issued
system.cpu.iq.FU_type_0::SimdMultAcc                0      0.00%     80.97% # Type of FU issued
system.cpu.iq.FU_type_0::SimdShift               2153      0.05%     81.03% # Type of FU issued
system.cpu.iq.FU_type_0::SimdShiftAcc               0      0.00%     81.03% # Type of FU issued
system.cpu.iq.FU_type_0::SimdDiv                    0      0.00%     81.03% # Type of FU issued
system.cpu.iq.FU_type_0::SimdSqrt                   0      0.00%     81.03% # Type of FU issued
system.cpu.iq.FU_type_0::SimdFloatAdd               0      0.00%     81.03% # Type of FU issued
system.cpu.iq.FU_type_0::SimdFloatAlu               0      0.00%     81.03% # Type of FU issued
system.cpu.iq.FU_type_0::SimdFloatCmp               0      0.00%     81.03% # Type of FU issued
system.cpu.iq.FU_type_0::SimdFloatCvt               0      0.00%     81.03% # Type of FU issued
system.cpu.iq.FU_type_0::SimdFloatDiv               0      0.00%     81.03% # Type of FU issued
system.cpu.iq.FU_type_0::SimdFloatMisc              0      0.00%     81.03% # Type of FU issued
system.cpu.iq.FU_type_0::SimdFloatMult              0      0.00%     81.03% # Type of FU issued
system.cpu.iq.FU_type_0::SimdFloatMultAcc            0      0.00%     81.03% # Type of FU issued
system.cpu.iq.FU_type_0::SimdFloatSqrt              0      0.00%     81.03% # Type of FU issued
system.cpu.iq.FU_type_0::SimdReduceAdd              0      0.00%     81.03% # Type of FU issued
system.cpu.iq.FU_type_0::SimdReduceAlu              0      0.00%     81.03% # Type of FU issued
system.cpu.iq.FU_type_0::SimdReduceCmp              0      0.00%     81.03% # Type of FU issued
system.cpu.iq.FU_type_0::SimdFloatReduceAdd            0      0.00%     81.03% # Type of FU issued
system.cpu.iq.FU_type_0::SimdFloatReduceCmp            0      0.00%     81.03% # Type of FU issued
system.cpu.iq.FU_type_0::SimdAes                    0      0.00%     81.03% # Type of FU issued
system.cpu.iq.FU_type_0::SimdAesMix                 0      0.00%     81.03% # Type of FU issued
system.cpu.iq.FU_type_0::SimdSha1Hash               0      0.00%     81.03% # Type of FU issued
system.cpu.iq.FU_type_0::SimdSha1Hash2              0      0.00%     81.03% # Type of FU issued
system.cpu.iq.FU_type_0::SimdSha256Hash             0      0.00%     81.03% # Type of FU issued
system.cpu.iq.FU_type_0::SimdSha256Hash2            0      0.00%     81.03% # Type of FU issued
system.cpu.iq.FU_type_0::SimdShaSigma2              0      0.00%     81.03% # Type of FU issued
system.cpu.iq.FU_type_0::SimdShaSigma3              0      0.00%     81.03% # Type of FU issued
system.cpu.iq.FU_type_0::SimdPredAlu                0      0.00%     81.03% # Type of FU issued
system.cpu.iq.FU_type_0::MemRead               570245     13.63%     94.66% # Type of FU issued
system.cpu.iq.FU_type_0::MemWrite              184047      4.40%     99.05% # Type of FU issued
system.cpu.iq.FU_type_0::FloatMemRead           25750      0.62%     99.67% # Type of FU issued
system.cpu.iq.FU_type_0::FloatMemWrite          13817      0.33%    100.00% # Type of FU issued
system.cpu.iq.FU_type_0::IprAccess                  0      0.00%    100.00% # Type of FU issued
system.cpu.iq.FU_type_0::InstPrefetch               0      0.00%    100.00% # Type of FU issued
system.cpu.iq.FU_type_0::total                4183889                       # Type of FU issued
system.cpu.iq.fp_alu_accesses                   91792                       # Number of floating point alu accesses
system.cpu.iq.fp_inst_queue_reads              184934                       # Number of floating instruction queue reads
system.cpu.iq.fp_inst_queue_wakeup_accesses        88398                       # Number of floating instruction queue wakeup accesses
system.cpu.iq.fp_inst_queue_writes             132007                       # Number of floating instruction queue writes
system.cpu.iq.fu_busy_cnt                           0                       # FU busy when requested
system.cpu.iq.fu_busy_rate                          0                       # FU busy rate (busy events/executed inst)
system.cpu.iq.fu_full::No_OpClass                   0                       # attempts to use FU when none available
system.cpu.iq.fu_full::IntAlu                       0                       # attempts to use FU when none available
system.cpu.iq.fu_full::IntMult                      0                       # attempts to use FU when none available
system.cpu.iq.fu_full::IntDiv                       0                       # attempts to use FU when none available
system.cpu.iq.fu_full::FloatAdd                     0                       # attempts to use FU when none available
system.cpu.iq.fu_full::FloatCmp                     0                       # attempts to use FU when none available
system.cpu.iq.fu_full::FloatCvt                     0                       # attempts to use FU when none available
system.cpu.iq.fu_full::FloatMult                    0                       # attempts to use FU when none available
system.cpu.iq.fu_full::FloatMultAcc                 0                       # attempts to use FU when none available
system.cpu.iq.fu_full::FloatDiv                     0                       # attempts to use FU when none available
system.cpu.iq.fu_full::FloatMisc                    0                       # attempts to use FU when none available
system.cpu.iq.fu_full::FloatSqrt                    0                       # attempts to use FU when none available
system.cpu.iq.fu_full::SimdAdd                      0                       # attempts to use FU when none available
system.cpu.iq.fu_full::SimdAddAcc                   0                       # attempts to use FU when none available
system.cpu.iq.fu_full::SimdAlu                      0                       # attempts to use FU when none available
system.cpu.iq.fu_full::SimdCmp                      0                       # attempts to use FU when none available
system.cpu.iq.fu_full::SimdCvt                      0                       # attempts to use FU when none available
system.cpu.iq.fu_full::SimdMisc                     0                       # attempts to use FU when none available
system.cpu.iq.fu_full::SimdMult                     0                       # attempts to use FU when none available
system.cpu.iq.fu_full::SimdMultAcc                  0                       # attempts to use FU when none available
system.cpu.iq.fu_full::SimdShift                    0                       # attempts to use FU when none available
system.cpu.iq.fu_full::SimdShiftAcc                 0                       # attempts to use FU when none available
system.cpu.iq.fu_full::SimdDiv                      0                       # attempts to use FU when none available
system.cpu.iq.fu_full::SimdSqrt                     0                       # attempts to use FU when none available
system.cpu.iq.fu_full::SimdFloatAdd                 0                       # attempts to use FU when none available
system.cpu.iq.fu_full::SimdFloatAlu                 0                       # attempts to use FU when none available
system.cpu.iq.fu_full::SimdFloatCmp                 0                       # attempts to use FU when none available
system.cpu.iq.fu_full::SimdFloatCvt                 0                       # attempts to use FU when none available
system.cpu.iq.fu_full::SimdFloatDiv                 0                       # attempts to use FU when none available
system.cpu.iq.fu_full::SimdFloatMisc                0                       # attempts to use FU when none available
system.cpu.iq.fu_full::SimdFloatMult                0                       # attempts to use FU when none available
system.cpu.iq.fu_full::SimdFloatMultAcc             0                       # attempts to use FU when none available
system.cpu.iq.fu_full::SimdFloatSqrt                0                       # attempts to use FU when none available
system.cpu.iq.fu_full::SimdReduceAdd                0                       # attempts to use FU when none available
system.cpu.iq.fu_full::SimdReduceAlu                0                       # attempts to use FU when none available
system.cpu.iq.fu_full::SimdReduceCmp                0                       # attempts to use FU when none available
system.cpu.iq.fu_full::SimdFloatReduceAdd            0                       # attempts to use FU when none available
system.cpu.iq.fu_full::SimdFloatReduceCmp            0                       # attempts to use FU when none available
system.cpu.iq.fu_full::SimdAes                      0                       # attempts to use FU when none available
system.cpu.iq.fu_full::SimdAesMix                   0                       # attempts to use FU when none available
system.cpu.iq.fu_full::SimdSha1Hash                 0                       # attempts to use FU when none available
system.cpu.iq.fu_full::SimdSha1Hash2                0                       # attempts to use FU when none available
system.cpu.iq.fu_full::SimdSha256Hash               0                       # attempts to use FU when none available
system.cpu.iq.fu_full::SimdSha256Hash2              0                       # attempts to use FU when none available
system.cpu.iq.fu_full::SimdShaSigma2                0                       # attempts to use FU when none available
system.cpu.iq.fu_full::SimdShaSigma3                0                       # attempts to use FU when none available
system.cpu.iq.fu_full::SimdPredAlu                  0                       # attempts to use FU when none available
system.cpu.iq.fu_full::MemRead                      0                       # attempts to use FU when none available
system.cpu.iq.fu_full::MemWrite                     0                       # attempts to use FU when none available
system.cpu.iq.fu_full::FloatMemRead                 0                       # attempts to use FU when none available
system.cpu.iq.fu_full::FloatMemWrite                0                       # attempts to use FU when none available
system.cpu.iq.fu_full::IprAccess                    0                       # attempts to use FU when none available
system.cpu.iq.fu_full::InstPrefetch                 0                       # attempts to use FU when none available
system.cpu.iq.int_alu_accesses                4065628                       # Number of integer alu accesses
system.cpu.iq.int_inst_queue_reads           10786523                       # Number of integer instruction queue reads
system.cpu.iq.int_inst_queue_wakeup_accesses      4038811                       # Number of integer instruction queue wakeup accesses
system.cpu.iq.int_inst_queue_writes           5258414                       # Number of integer instruction queue writes
system.cpu.iq.iqInstsAdded                    4502337                       # Number of instructions added to the IQ (excludes non-spec)
system.cpu.iq.iqInstsIssued                   4183889                       # Number of instructions issued
system.cpu.iq.iqNonSpecInstsAdded                1213                       # Number of non-speculative instructions added to the IQ
system.cpu.iq.iqSquashedInstsExamined          886800                       # Number of squashed instructions iterated over during squash; mainly for profiling
system.cpu.iq.iqSquashedInstsIssued             18689                       # Number of squashed instructions issued
system.cpu.iq.iqSquashedNonSpecRemoved            371                       # Number of squashed non-spec instructions that were removed
system.cpu.iq.iqSquashedOperandsExamined      1321721                       # Number of squashed operands that are examined and possibly removed from graph
system.cpu.iq.issued_per_cycle::samples       2584993                       # Number of insts issued each cycle
system.cpu.iq.issued_per_cycle::mean         1.618530                       # Number of insts issued each cycle
system.cpu.iq.issued_per_cycle::stdev        1.672765                       # Number of insts issued each cycle
system.cpu.iq.issued_per_cycle::underflows            0      0.00%      0.00% # Number of insts issued each cycle
system.cpu.iq.issued_per_cycle::0             1175557     45.48%     45.48% # Number of insts issued each cycle
system.cpu.iq.issued_per_cycle::1              172352      6.67%     52.14% # Number of insts issued each cycle
system.cpu.iq.issued_per_cycle::2              298412     11.54%     63.69% # Number of insts issued each cycle
system.cpu.iq.issued_per_cycle::3              339975     13.15%     76.84% # Number of insts issued each cycle
system.cpu.iq.issued_per_cycle::4              598697     23.16%    100.00% # Number of insts issued each cycle
system.cpu.iq.issued_per_cycle::overflows            0      0.00%    100.00% # Number of insts issued each cycle
system.cpu.iq.issued_per_cycle::min_value            0                       # Number of insts issued each cycle
system.cpu.iq.issued_per_cycle::max_value            4                       # Number of insts issued each cycle
system.cpu.iq.issued_per_cycle::total         2584993                       # Number of insts issued each cycle
system.cpu.iq.rate                           1.518899                       # Inst issue rate
system.cpu.iq.vec_alu_accesses                      0                       # Number of vector alu accesses
system.cpu.iq.vec_inst_queue_reads                  0                       # Number of vector instruction queue reads
system.cpu.iq.vec_inst_queue_wakeup_accesses            0                       # Number of vector instruction queue wakeup accesses
system.cpu.iq.vec_inst_queue_writes                 0                       # Number of vector instruction queue writes
system.cpu.itb.rdAccesses                           0                       # TLB accesses on read requests
system.cpu.itb.rdMisses                             0                       # TLB misses on read requests
system.cpu.itb.wrAccesses                      242387                       # TLB accesses on write requests
system.cpu.itb.wrMisses                           395                       # TLB misses on write requests
system.cpu.memDep0.conflictingLoads             10456                       # Number of conflicting loads.
system.cpu.memDep0.conflictingStores             5491                       # Number of conflicting stores.
system.cpu.memDep0.insertedLoads               616694                       # Number of loads inserted to the mem dependence unit.
system.cpu.memDep0.insertedStores              205836                       # Number of stores inserted to the mem dependence unit.
system.cpu.misc_regfile_reads                 1577594                       # number of misc regfile reads
system.cpu.misc_regfile_writes                    774                       # number of misc regfile writes
system.cpu.numCycles                          2754554                       # number of cpu cycles simulated
system.cpu.numWorkItemsCompleted                    0                       # number of work items this cpu completed
system.cpu.numWorkItemsStarted                      0                       # number of work items this cpu started
system.cpu.process.numSyscalls                     67                       # Number of system calls
system.cpu.rename.BlockCycles                  842464                       # Number of cycles rename is blocking
system.cpu.rename.CommittedMaps               4929291                       # Number of HB maps that are committed
system.cpu.rename.FullRegisterEvents              108                       # Number of times there has been no free registers
system.cpu.rename.IQFullEvents                  43769                       # Number of times rename has blocked due to IQ full
system.cpu.rename.IdleCycles                   348402                       # Number of cycles rename is idle
system.cpu.rename.LQFullEvents                  12850                       # Number of times rename has blocked due to LQ full
system.cpu.rename.ROBFullEvents                  4367                       # Number of times rename has blocked due to ROB full
system.cpu.rename.RenameLookups              12147586                       # Number of register rename lookups that rename has made
system.cpu.rename.RenamedInsts                4646678                       # Number of instructions processed by rename
system.cpu.rename.RenamedOperands             6323156                       # Number of destination operands rename has renamed
system.cpu.rename.RunCycles                   1179112                       # Number of cycles rename is running
system.cpu.rename.SQFullEvents                  75667                       # Number of times rename has blocked due to SQ full
system.cpu.rename.SquashCycles                  24633                       # Number of cycles rename is squashing
system.cpu.rename.UnblockCycles                168827                       # Number of cycles rename is unblocking
system.cpu.rename.UndoneMaps                  1393842                       # Number of HB maps that are undone due to squashing
system.cpu.rename.fp_rename_lookups            155734                       # Number of floating rename lookups
system.cpu.rename.int_rename_lookups          7374797                       # Number of integer rename lookups
system.cpu.rename.serializeStallCycles          21555                       # count of cycles rename stalled for serializing inst
system.cpu.rename.serializingInsts                988                       # count of serializing insts renamed
system.cpu.rename.skidInsts                    200174                       # count of insts added to the skid buffer
system.cpu.rename.tempSerializingInsts           1048                       # count of temporary serializing insts renamed
system.cpu.rob.rob_reads                      6243556                       # The number of ROB reads
system.cpu.rob.rob_writes                     9250012                       # The number of ROB writes
system.cpu.timesIdled                            1701                       # Number of times that the entire CPU went into an idle state and unscheduled itself
system.l2bus.snoop_filter.hit_multi_requests           11                       # Number of requests hitting in the snoop filter with multiple (>1) holders of the requested data.
system.l2bus.snoop_filter.hit_multi_snoops            0                       # Number of snoops hitting in the snoop filter with multiple (>1) holders of the requested data.
system.l2bus.snoop_filter.hit_single_requests        18727                       # Number of requests hitting in the snoop filter with a single holder of the requested data.
system.l2bus.snoop_filter.hit_single_snoops          427                       # Number of snoops hitting in the snoop filter with a single holder of the requested data.
system.l2bus.snoop_filter.tot_requests          38730                       # Total number of requests made to the snoop filter.
system.l2bus.snoop_filter.tot_snoops              427                       # Total number of snoops made to the snoop filter.
system.l2cache.prefetcher.num_hwpf_issued          613                       # number of hwpf issued
system.l2cache.prefetcher.pfBufferHit               0                       # number of redundant prefetches already in prefetch queue
system.l2cache.prefetcher.pfIdentified            613                       # number of prefetch candidates identified
system.l2cache.prefetcher.pfInCache                 0                       # number of redundant prefetches already in cache/mshr dropped
system.l2cache.prefetcher.pfRemovedFull             0                       # number of prefetches dropped due to prefetch queue size
system.l2cache.prefetcher.pfSpanPage               63                       # number of prefetches that crossed the page
system.membus.snoop_filter.hit_multi_requests            0                       # Number of requests hitting in the snoop filter with multiple (>1) holders of the requested data.
system.membus.snoop_filter.hit_multi_snoops            0                       # Number of snoops hitting in the snoop filter with multiple (>1) holders of the requested data.
system.membus.snoop_filter.hit_single_requests         9528                       # Number of requests hitting in the snoop filter with a single holder of the requested data.
system.membus.snoop_filter.hit_single_snoops            0                       # Number of snoops hitting in the snoop filter with a single holder of the requested data.
system.membus.snoop_filter.tot_requests         23177                       # Total number of requests made to the snoop filter.
system.membus.snoop_filter.tot_snoops               0                       # Total number of snoops made to the snoop filter.
system.membus.pwrStateResidencyTicks::UNDEFINED   1101821200                       # Cumulative time (in ticks) in various power states
system.membus.trans_dist::ReadResp              12332                       # Transaction distribution
system.membus.trans_dist::WritebackDirty         1353                       # Transaction distribution
system.membus.trans_dist::CleanEvict             8175                       # Transaction distribution
system.membus.trans_dist::ReadExReq              1317                       # Transaction distribution
system.membus.trans_dist::ReadExResp             1317                       # Transaction distribution
system.membus.trans_dist::ReadSharedReq         12332                       # Transaction distribution
system.membus.pkt_count_system.l2cache.mem_side::system.mem_ctrl.port        36826                       # Packet count per connected master and slave (bytes)
system.membus.pkt_count_system.l2cache.mem_side::total        36826                       # Packet count per connected master and slave (bytes)
system.membus.pkt_count::total                  36826                       # Packet count per connected master and slave (bytes)
system.membus.pkt_size_system.l2cache.mem_side::system.mem_ctrl.port       960128                       # Cumulative packet size per connected master and slave (bytes)
system.membus.pkt_size_system.l2cache.mem_side::total       960128                       # Cumulative packet size per connected master and slave (bytes)
system.membus.pkt_size::total                  960128                       # Cumulative packet size per connected master and slave (bytes)
system.membus.snoops                                0                       # Total snoops (count)
system.membus.snoopTraffic                          0                       # Total snoop traffic (bytes)
system.membus.snoop_fanout::samples             13649                       # Request fanout histogram
system.membus.snoop_fanout::mean                    0                       # Request fanout histogram
system.membus.snoop_fanout::stdev                   0                       # Request fanout histogram
system.membus.snoop_fanout::underflows              0      0.00%      0.00% # Request fanout histogram
system.membus.snoop_fanout::0                   13649    100.00%    100.00% # Request fanout histogram
system.membus.snoop_fanout::1                       0      0.00%    100.00% # Request fanout histogram
system.membus.snoop_fanout::overflows               0      0.00%    100.00% # Request fanout histogram
system.membus.snoop_fanout::min_value               0                       # Request fanout histogram
system.membus.snoop_fanout::max_value               0                       # Request fanout histogram
system.membus.snoop_fanout::total               13649                       # Request fanout histogram
system.membus.reqLayer2.occupancy            11458306                       # Layer occupancy (ticks)
system.membus.reqLayer2.utilization               1.0                       # Layer utilization (%)
system.membus.respLayer0.occupancy           29635094                       # Layer occupancy (ticks)
system.membus.respLayer0.utilization              2.7                       # Layer utilization (%)
system.l2bus.pwrStateResidencyTicks::UNDEFINED   1101821200                       # Cumulative time (in ticks) in various power states
system.l2bus.trans_dist::ReadResp               17943                       # Transaction distribution
system.l2bus.trans_dist::WritebackDirty          4133                       # Transaction distribution
system.l2bus.trans_dist::CleanEvict             24205                       # Transaction distribution
system.l2bus.trans_dist::HardPFReq                917                       # Transaction distribution
system.l2bus.trans_dist::ReadExReq               2062                       # Transaction distribution
system.l2bus.trans_dist::ReadExResp              2062                       # Transaction distribution
system.l2bus.trans_dist::ReadSharedReq          17943                       # Transaction distribution
system.l2bus.pkt_count_system.cpu.icache.mem_side::system.l2cache.cpu_side         8800                       # Packet count per connected master and slave (bytes)
system.l2bus.pkt_count_system.cpu.dcache.mem_side::system.l2cache.cpu_side        49931                       # Packet count per connected master and slave (bytes)
system.l2bus.pkt_count::total                   58731                       # Packet count per connected master and slave (bytes)
system.l2bus.pkt_size_system.cpu.icache.mem_side::system.l2cache.cpu_side       193024                       # Cumulative packet size per connected master and slave (bytes)
system.l2bus.pkt_size_system.cpu.dcache.mem_side::system.l2cache.cpu_side      1264960                       # Cumulative packet size per connected master and slave (bytes)
system.l2bus.pkt_size::total                  1457984                       # Cumulative packet size per connected master and slave (bytes)
system.l2bus.snoops                             10534                       # Total snoops (count)
system.l2bus.snoopTraffic                       86848                       # Total snoop traffic (bytes)
system.l2bus.snoop_fanout::samples              30535                       # Request fanout histogram
system.l2bus.snoop_fanout::mean              0.014410                       # Request fanout histogram
system.l2bus.snoop_fanout::stdev             0.119174                       # Request fanout histogram
system.l2bus.snoop_fanout::underflows               0      0.00%      0.00% # Request fanout histogram
system.l2bus.snoop_fanout::0                    30095     98.56%     98.56% # Request fanout histogram
system.l2bus.snoop_fanout::1                      440      1.44%    100.00% # Request fanout histogram
system.l2bus.snoop_fanout::2                        0      0.00%    100.00% # Request fanout histogram
system.l2bus.snoop_fanout::overflows                0      0.00%    100.00% # Request fanout histogram
system.l2bus.snoop_fanout::min_value                0                       # Request fanout histogram
system.l2bus.snoop_fanout::max_value                1                       # Request fanout histogram
system.l2bus.snoop_fanout::total                30535                       # Request fanout histogram
system.l2bus.respLayer1.occupancy            20383197                       # Layer occupancy (ticks)
system.l2bus.respLayer1.utilization               1.8                       # Layer utilization (%)
system.l2bus.reqLayer0.occupancy             19141458                       # Layer occupancy (ticks)
system.l2bus.reqLayer0.utilization                1.7                       # Layer utilization (%)
system.l2bus.respLayer0.occupancy             3625197                       # Layer occupancy (ticks)
system.l2bus.respLayer0.utilization               0.3                       # Layer utilization (%)
system.clk_domain.clock                           400                       # Clock period in ticks
system.clk_domain.voltage_domain.voltage            1                       # Voltage in Volts
system.cpu.pwrStateResidencyTicks::ON      1101821200                       # Cumulative time (in ticks) in various power states
system.cpu.icache.pwrStateResidencyTicks::UNDEFINED   1101821200                       # Cumulative time (in ticks) in various power states
system.cpu.icache.demand_hits::.cpu.inst       238537                       # number of demand (read+write) hits
system.cpu.icache.demand_hits::total           238537                       # number of demand (read+write) hits
system.cpu.icache.overall_hits::.cpu.inst       238537                       # number of overall hits
system.cpu.icache.overall_hits::total          238537                       # number of overall hits
system.cpu.icache.demand_misses::.cpu.inst         3718                       # number of demand (read+write) misses
system.cpu.icache.demand_misses::total           3718                       # number of demand (read+write) misses
system.cpu.icache.overall_misses::.cpu.inst         3718                       # number of overall misses
system.cpu.icache.overall_misses::total          3718                       # number of overall misses
system.cpu.icache.demand_miss_latency::.cpu.inst    182343999                       # number of demand (read+write) miss cycles
system.cpu.icache.demand_miss_latency::total    182343999                       # number of demand (read+write) miss cycles
system.cpu.icache.overall_miss_latency::.cpu.inst    182343999                       # number of overall miss cycles
system.cpu.icache.overall_miss_latency::total    182343999                       # number of overall miss cycles
system.cpu.icache.demand_accesses::.cpu.inst       242255                       # number of demand (read+write) accesses
system.cpu.icache.demand_accesses::total       242255                       # number of demand (read+write) accesses
system.cpu.icache.overall_accesses::.cpu.inst       242255                       # number of overall (read+write) accesses
system.cpu.icache.overall_accesses::total       242255                       # number of overall (read+write) accesses
system.cpu.icache.demand_miss_rate::.cpu.inst     0.015347                       # miss rate for demand accesses
system.cpu.icache.demand_miss_rate::total     0.015347                       # miss rate for demand accesses
system.cpu.icache.overall_miss_rate::.cpu.inst     0.015347                       # miss rate for overall accesses
system.cpu.icache.overall_miss_rate::total     0.015347                       # miss rate for overall accesses
system.cpu.icache.demand_avg_miss_latency::.cpu.inst 49043.571544                       # average overall miss latency
system.cpu.icache.demand_avg_miss_latency::total 49043.571544                       # average overall miss latency
system.cpu.icache.overall_avg_miss_latency::.cpu.inst 49043.571544                       # average overall miss latency
system.cpu.icache.overall_avg_miss_latency::total 49043.571544                       # average overall miss latency
system.cpu.icache.blocked_cycles::no_mshrs          144                       # number of cycles access was blocked
system.cpu.icache.blocked_cycles::no_targets            0                       # number of cycles access was blocked
system.cpu.icache.blocked::no_mshrs                 6                       # number of cycles access was blocked
system.cpu.icache.blocked::no_targets               0                       # number of cycles access was blocked
system.cpu.icache.avg_blocked_cycles::no_mshrs           24                       # average number of cycles each access was blocked
system.cpu.icache.avg_blocked_cycles::no_targets          nan                       # average number of cycles each access was blocked
system.cpu.icache.demand_mshr_hits::.cpu.inst          698                       # number of demand (read+write) MSHR hits
system.cpu.icache.demand_mshr_hits::total          698                       # number of demand (read+write) MSHR hits
system.cpu.icache.overall_mshr_hits::.cpu.inst          698                       # number of overall MSHR hits
system.cpu.icache.overall_mshr_hits::total          698                       # number of overall MSHR hits
system.cpu.icache.demand_mshr_misses::.cpu.inst         3020                       # number of demand (read+write) MSHR misses
system.cpu.icache.demand_mshr_misses::total         3020                       # number of demand (read+write) MSHR misses
system.cpu.icache.overall_mshr_misses::.cpu.inst         3020                       # number of overall MSHR misses
system.cpu.icache.overall_mshr_misses::total         3020                       # number of overall MSHR misses
system.cpu.icache.demand_mshr_miss_latency::.cpu.inst    147970399                       # number of demand (read+write) MSHR miss cycles
system.cpu.icache.demand_mshr_miss_latency::total    147970399                       # number of demand (read+write) MSHR miss cycles
system.cpu.icache.overall_mshr_miss_latency::.cpu.inst    147970399                       # number of overall MSHR miss cycles
system.cpu.icache.overall_mshr_miss_latency::total    147970399                       # number of overall MSHR miss cycles
system.cpu.icache.demand_mshr_miss_rate::.cpu.inst     0.012466                       # mshr miss rate for demand accesses
system.cpu.icache.demand_mshr_miss_rate::total     0.012466                       # mshr miss rate for demand accesses
system.cpu.icache.overall_mshr_miss_rate::.cpu.inst     0.012466                       # mshr miss rate for overall accesses
system.cpu.icache.overall_mshr_miss_rate::total     0.012466                       # mshr miss rate for overall accesses
system.cpu.icache.demand_avg_mshr_miss_latency::.cpu.inst 48996.820861                       # average overall mshr miss latency
system.cpu.icache.demand_avg_mshr_miss_latency::total 48996.820861                       # average overall mshr miss latency
system.cpu.icache.overall_avg_mshr_miss_latency::.cpu.inst 48996.820861                       # average overall mshr miss latency
system.cpu.icache.overall_avg_mshr_miss_latency::total 48996.820861                       # average overall mshr miss latency
system.cpu.icache.replacements                   2764                       # number of replacements
system.cpu.icache.ReadReq_hits::.cpu.inst       238537                       # number of ReadReq hits
system.cpu.icache.ReadReq_hits::total          238537                       # number of ReadReq hits
system.cpu.icache.ReadReq_misses::.cpu.inst         3718                       # number of ReadReq misses
system.cpu.icache.ReadReq_misses::total          3718                       # number of ReadReq misses
system.cpu.icache.ReadReq_miss_latency::.cpu.inst    182343999                       # number of ReadReq miss cycles
system.cpu.icache.ReadReq_miss_latency::total    182343999                       # number of ReadReq miss cycles
system.cpu.icache.ReadReq_accesses::.cpu.inst       242255                       # number of ReadReq accesses(hits+misses)
system.cpu.icache.ReadReq_accesses::total       242255                       # number of ReadReq accesses(hits+misses)
system.cpu.icache.ReadReq_miss_rate::.cpu.inst     0.015347                       # miss rate for ReadReq accesses
system.cpu.icache.ReadReq_miss_rate::total     0.015347                       # miss rate for ReadReq accesses
system.cpu.icache.ReadReq_avg_miss_latency::.cpu.inst 49043.571544                       # average ReadReq miss latency
system.cpu.icache.ReadReq_avg_miss_latency::total 49043.571544                       # average ReadReq miss latency
system.cpu.icache.ReadReq_mshr_hits::.cpu.inst          698                       # number of ReadReq MSHR hits
system.cpu.icache.ReadReq_mshr_hits::total          698                       # number of ReadReq MSHR hits
system.cpu.icache.ReadReq_mshr_misses::.cpu.inst         3020                       # number of ReadReq MSHR misses
system.cpu.icache.ReadReq_mshr_misses::total         3020                       # number of ReadReq MSHR misses
system.cpu.icache.ReadReq_mshr_miss_latency::.cpu.inst    147970399                       # number of ReadReq MSHR miss cycles
system.cpu.icache.ReadReq_mshr_miss_latency::total    147970399                       # number of ReadReq MSHR miss cycles
system.cpu.icache.ReadReq_mshr_miss_rate::.cpu.inst     0.012466                       # mshr miss rate for ReadReq accesses
system.cpu.icache.ReadReq_mshr_miss_rate::total     0.012466                       # mshr miss rate for ReadReq accesses
system.cpu.icache.ReadReq_avg_mshr_miss_latency::.cpu.inst 48996.820861                       # average ReadReq mshr miss latency
system.cpu.icache.ReadReq_avg_mshr_miss_latency::total 48996.820861                       # average ReadReq mshr miss latency
system.cpu.icache.prefetcher.pwrStateResidencyTicks::UNDEFINED   1101821200                       # Cumulative time (in ticks) in various power states
system.cpu.icache.tags.pwrStateResidencyTicks::UNDEFINED   1101821200                       # Cumulative time (in ticks) in various power states
system.cpu.icache.tags.tagsinuse           253.500746                       # Cycle average of tags in use
system.cpu.icache.tags.total_refs              228149                       # Total number of references to valid blocks.
system.cpu.icache.tags.sampled_refs              2764                       # Sample count of references to valid blocks.
system.cpu.icache.tags.avg_refs             82.543054                       # Average number of references to valid blocks.
system.cpu.icache.tags.warmup_cycle             66400                       # Cycle when the warmup percentage was hit.
system.cpu.icache.tags.occ_blocks::.cpu.inst   253.500746                       # Average occupied blocks per requestor
system.cpu.icache.tags.occ_percent::.cpu.inst     0.990237                       # Average percentage of cache occupancy
system.cpu.icache.tags.occ_percent::total     0.990237                       # Average percentage of cache occupancy
system.cpu.icache.tags.occ_task_id_blocks::1024          256                       # Occupied blocks per task id
system.cpu.icache.tags.age_task_id_blocks_1024::0           71                       # Occupied blocks per task id
system.cpu.icache.tags.age_task_id_blocks_1024::1          169                       # Occupied blocks per task id
system.cpu.icache.tags.age_task_id_blocks_1024::2           14                       # Occupied blocks per task id
system.cpu.icache.tags.age_task_id_blocks_1024::3            2                       # Occupied blocks per task id
system.cpu.icache.tags.occ_task_id_percent::1024            1                       # Percentage of cache occupancy per task id
system.cpu.icache.tags.tag_accesses            487530                       # Number of tag accesses
system.cpu.icache.tags.data_accesses           487530                       # Number of data accesses
system.cpu.dtb.walker.pwrStateResidencyTicks::UNDEFINED   1101821200                       # Cumulative time (in ticks) in various power states
system.cpu.interrupts.clk_domain.clock           6400                       # Clock period in ticks
system.cpu.itb.walker.pwrStateResidencyTicks::UNDEFINED   1101821200                       # Cumulative time (in ticks) in various power states
system.cpu.dcache.pwrStateResidencyTicks::UNDEFINED   1101821200                       # Cumulative time (in ticks) in various power states
system.cpu.dcache.demand_hits::.cpu.data       683326                       # number of demand (read+write) hits
system.cpu.dcache.demand_hits::total           683326                       # number of demand (read+write) hits
system.cpu.dcache.overall_hits::.cpu.data       683326                       # number of overall hits
system.cpu.dcache.overall_hits::total          683326                       # number of overall hits
system.cpu.dcache.demand_misses::.cpu.data        34727                       # number of demand (read+write) misses
system.cpu.dcache.demand_misses::total          34727                       # number of demand (read+write) misses
system.cpu.dcache.overall_misses::.cpu.data        34727                       # number of overall misses
system.cpu.dcache.overall_misses::total         34727                       # number of overall misses
system.cpu.dcache.demand_miss_latency::.cpu.data   1690702400                       # number of demand (read+write) miss cycles
system.cpu.dcache.demand_miss_latency::total   1690702400                       # number of demand (read+write) miss cycles
system.cpu.dcache.overall_miss_latency::.cpu.data   1690702400                       # number of overall miss cycles
system.cpu.dcache.overall_miss_latency::total   1690702400                       # number of overall miss cycles
system.cpu.dcache.demand_accesses::.cpu.data       718053                       # number of demand (read+write) accesses
system.cpu.dcache.demand_accesses::total       718053                       # number of demand (read+write) accesses
system.cpu.dcache.overall_accesses::.cpu.data       718053                       # number of overall (read+write) accesses
system.cpu.dcache.overall_accesses::total       718053                       # number of overall (read+write) accesses
system.cpu.dcache.demand_miss_rate::.cpu.data     0.048363                       # miss rate for demand accesses
system.cpu.dcache.demand_miss_rate::total     0.048363                       # miss rate for demand accesses
system.cpu.dcache.overall_miss_rate::.cpu.data     0.048363                       # miss rate for overall accesses
system.cpu.dcache.overall_miss_rate::total     0.048363                       # miss rate for overall accesses
system.cpu.dcache.demand_avg_miss_latency::.cpu.data 48685.529991                       # average overall miss latency
system.cpu.dcache.demand_avg_miss_latency::total 48685.529991                       # average overall miss latency
system.cpu.dcache.overall_avg_miss_latency::.cpu.data 48685.529991                       # average overall miss latency
system.cpu.dcache.overall_avg_miss_latency::total 48685.529991                       # average overall miss latency
system.cpu.dcache.blocked_cycles::no_mshrs        28774                       # number of cycles access was blocked
system.cpu.dcache.blocked_cycles::no_targets          144                       # number of cycles access was blocked
system.cpu.dcache.blocked::no_mshrs               757                       # number of cycles access was blocked
system.cpu.dcache.blocked::no_targets               2                       # number of cycles access was blocked
system.cpu.dcache.avg_blocked_cycles::no_mshrs    38.010568                       # average number of cycles each access was blocked
system.cpu.dcache.avg_blocked_cycles::no_targets           72                       # average number of cycles each access was blocked
system.cpu.dcache.unused_prefetches              1734                       # number of HardPF blocks evicted w/o reference
system.cpu.dcache.writebacks::.writebacks         2780                       # number of writebacks
system.cpu.dcache.writebacks::total              2780                       # number of writebacks
system.cpu.dcache.demand_mshr_hits::.cpu.data        22073                       # number of demand (read+write) MSHR hits
system.cpu.dcache.demand_mshr_hits::total        22073                       # number of demand (read+write) MSHR hits
system.cpu.dcache.overall_mshr_hits::.cpu.data        22073                       # number of overall MSHR hits
system.cpu.dcache.overall_mshr_hits::total        22073                       # number of overall MSHR hits
system.cpu.dcache.demand_mshr_misses::.cpu.data        12654                       # number of demand (read+write) MSHR misses
system.cpu.dcache.demand_mshr_misses::total        12654                       # number of demand (read+write) MSHR misses
system.cpu.dcache.overall_mshr_misses::.cpu.data        12654                       # number of overall MSHR misses
system.cpu.dcache.overall_mshr_misses::.cpu.dcache.prefetcher         4331                       # number of overall MSHR misses
system.cpu.dcache.overall_mshr_misses::total        16985                       # number of overall MSHR misses
system.cpu.dcache.demand_mshr_miss_latency::.cpu.data    576223600                       # number of demand (read+write) MSHR miss cycles
system.cpu.dcache.demand_mshr_miss_latency::total    576223600                       # number of demand (read+write) MSHR miss cycles
system.cpu.dcache.overall_mshr_miss_latency::.cpu.data    576223600                       # number of overall MSHR miss cycles
system.cpu.dcache.overall_mshr_miss_latency::.cpu.dcache.prefetcher    253142552                       # number of overall MSHR miss cycles
system.cpu.dcache.overall_mshr_miss_latency::total    829366152                       # number of overall MSHR miss cycles
system.cpu.dcache.demand_mshr_miss_rate::.cpu.data     0.017623                       # mshr miss rate for demand accesses
system.cpu.dcache.demand_mshr_miss_rate::total     0.017623                       # mshr miss rate for demand accesses
system.cpu.dcache.overall_mshr_miss_rate::.cpu.data     0.017623                       # mshr miss rate for overall accesses
system.cpu.dcache.overall_mshr_miss_rate::.cpu.dcache.prefetcher          inf                       # mshr miss rate for overall accesses
system.cpu.dcache.overall_mshr_miss_rate::total     0.023654                       # mshr miss rate for overall accesses
system.cpu.dcache.demand_avg_mshr_miss_latency::.cpu.data 45536.873716                       # average overall mshr miss latency
system.cpu.dcache.demand_avg_mshr_miss_latency::total 45536.873716                       # average overall mshr miss latency
system.cpu.dcache.overall_avg_mshr_miss_latency::.cpu.data 45536.873716                       # average overall mshr miss latency
system.cpu.dcache.overall_avg_mshr_miss_latency::.cpu.dcache.prefetcher 58448.984530                       # average overall mshr miss latency
system.cpu.dcache.overall_avg_mshr_miss_latency::total 48829.328937                       # average overall mshr miss latency
system.cpu.dcache.replacements                  15961                       # number of replacements
system.cpu.dcache.ReadReq_hits::.cpu.data       510221                       # number of ReadReq hits
system.cpu.dcache.ReadReq_hits::total          510221                       # number of ReadReq hits
system.cpu.dcache.ReadReq_misses::.cpu.data        32632                       # number of ReadReq misses
system.cpu.dcache.ReadReq_misses::total         32632                       # number of ReadReq misses
system.cpu.dcache.ReadReq_miss_latency::.cpu.data   1587319200                       # number of ReadReq miss cycles
system.cpu.dcache.ReadReq_miss_latency::total   1587319200                       # number of ReadReq miss cycles
system.cpu.dcache.ReadReq_accesses::.cpu.data       542853                       # number of ReadReq accesses(hits+misses)
system.cpu.dcache.ReadReq_accesses::total       542853                       # number of ReadReq accesses(hits+misses)
system.cpu.dcache.ReadReq_miss_rate::.cpu.data     0.060112                       # miss rate for ReadReq accesses
system.cpu.dcache.ReadReq_miss_rate::total     0.060112                       # miss rate for ReadReq accesses
system.cpu.dcache.ReadReq_avg_miss_latency::.cpu.data 48643.025251                       # average ReadReq miss latency
system.cpu.dcache.ReadReq_avg_miss_latency::total 48643.025251                       # average ReadReq miss latency
system.cpu.dcache.ReadReq_mshr_hits::.cpu.data        22039                       # number of ReadReq MSHR hits
system.cpu.dcache.ReadReq_mshr_hits::total        22039                       # number of ReadReq MSHR hits
system.cpu.dcache.ReadReq_mshr_misses::.cpu.data        10593                       # number of ReadReq MSHR misses
system.cpu.dcache.ReadReq_mshr_misses::total        10593                       # number of ReadReq MSHR misses
system.cpu.dcache.ReadReq_mshr_miss_latency::.cpu.data    475983600                       # number of ReadReq MSHR miss cycles
system.cpu.dcache.ReadReq_mshr_miss_latency::total    475983600                       # number of ReadReq MSHR miss cycles
system.cpu.dcache.ReadReq_mshr_miss_rate::.cpu.data     0.019514                       # mshr miss rate for ReadReq accesses
system.cpu.dcache.ReadReq_mshr_miss_rate::total     0.019514                       # mshr miss rate for ReadReq accesses
system.cpu.dcache.ReadReq_avg_mshr_miss_latency::.cpu.data 44933.786463                       # average ReadReq mshr miss latency
system.cpu.dcache.ReadReq_avg_mshr_miss_latency::total 44933.786463                       # average ReadReq mshr miss latency
system.cpu.dcache.WriteReq_hits::.cpu.data       173105                       # number of WriteReq hits
system.cpu.dcache.WriteReq_hits::total         173105                       # number of WriteReq hits
system.cpu.dcache.WriteReq_misses::.cpu.data         2095                       # number of WriteReq misses
system.cpu.dcache.WriteReq_misses::total         2095                       # number of WriteReq misses
system.cpu.dcache.WriteReq_miss_latency::.cpu.data    103383200                       # number of WriteReq miss cycles
system.cpu.dcache.WriteReq_miss_latency::total    103383200                       # number of WriteReq miss cycles
system.cpu.dcache.WriteReq_accesses::.cpu.data       175200                       # number of WriteReq accesses(hits+misses)
system.cpu.dcache.WriteReq_accesses::total       175200                       # number of WriteReq accesses(hits+misses)
system.cpu.dcache.WriteReq_miss_rate::.cpu.data     0.011958                       # miss rate for WriteReq accesses
system.cpu.dcache.WriteReq_miss_rate::total     0.011958                       # miss rate for WriteReq accesses
system.cpu.dcache.WriteReq_avg_miss_latency::.cpu.data 49347.589499                       # average WriteReq miss latency
system.cpu.dcache.WriteReq_avg_miss_latency::total 49347.589499                       # average WriteReq miss latency
system.cpu.dcache.WriteReq_mshr_hits::.cpu.data           34                       # number of WriteReq MSHR hits
system.cpu.dcache.WriteReq_mshr_hits::total           34                       # number of WriteReq MSHR hits
system.cpu.dcache.WriteReq_mshr_misses::.cpu.data         2061                       # number of WriteReq MSHR misses
system.cpu.dcache.WriteReq_mshr_misses::total         2061                       # number of WriteReq MSHR misses
[...]
system.l2cache.demand_mshr_miss_rate::.cpu.inst     0.422280                       # mshr miss rate for demand accesses
system.l2cache.demand_mshr_miss_rate::.cpu.data     0.538462                       # mshr miss rate for demand accesses
system.l2cache.demand_mshr_miss_rate::.cpu.dcache.prefetcher     0.714286                       # mshr miss rate for demand accesses
system.l2cache.demand_mshr_miss_rate::total     0.462230                       # mshr miss rate for demand accesses
system.l2cache.overall_mshr_miss_rate::.cpu.inst     0.422280                       # mshr miss rate for overall accesses
system.l2cache.overall_mshr_miss_rate::.cpu.data     0.538462                       # mshr miss rate for overall accesses
system.l2cache.overall_mshr_miss_rate::.cpu.dcache.prefetcher     0.714286                       # mshr miss rate for overall accesses
system.l2cache.overall_mshr_miss_rate::total     0.462230                       # mshr miss rate for overall accesses
system.l2cache.demand_avg_mshr_miss_latency::.cpu.inst 63040.490798                       # average overall mshr miss latency
system.l2cache.demand_avg_mshr_miss_latency::.cpu.data 59990.476190                       # average overall mshr miss latency
system.l2cache.demand_avg_mshr_miss_latency::.cpu.dcache.prefetcher 57198.900000                       # average overall mshr miss latency
system.l2cache.demand_avg_mshr_miss_latency::total 61816.299611                       # average overall mshr miss latency
system.l2cache.overall_avg_mshr_miss_latency::.cpu.inst 63040.490798                       # average overall mshr miss latency
system.l2cache.overall_avg_mshr_miss_latency::.cpu.data 59990.476190                       # average overall mshr miss latency
system.l2cache.overall_avg_mshr_miss_latency::.cpu.dcache.prefetcher 57198.900000                       # average overall mshr miss latency
system.l2cache.overall_avg_mshr_miss_latency::total 61816.299611                       # average overall mshr miss latency
system.l2cache.replacements                       262                       # number of replacements
system.l2cache.WritebackDirty_hits::.writebacks           43                       # number of WritebackDirty hits
system.l2cache.WritebackDirty_hits::total           43                       # number of WritebackDirty hits
system.l2cache.WritebackDirty_accesses::.writebacks           43                       # number of WritebackDirty accesses(hits+misses)
system.l2cache.WritebackDirty_accesses::total           43                       # number of WritebackDirty accesses(hits+misses)
system.l2cache.CleanEvict_mshr_misses::.writebacks            5                       # number of CleanEvict MSHR misses
system.l2cache.CleanEvict_mshr_misses::total            5                       # number of CleanEvict MSHR misses
system.l2cache.CleanEvict_mshr_miss_rate::.writebacks          inf                       # mshr miss rate for CleanEvict accesses
system.l2cache.CleanEvict_mshr_miss_rate::total          inf                       # mshr miss rate for CleanEvict accesses
system.l2cache.UpgradeReq_hits::.cpu.data            1                       # number of UpgradeReq hits
system.l2cache.UpgradeReq_hits::total               1                       # number of UpgradeReq hits
system.l2cache.UpgradeReq_misses::.cpu.data            1                       # number of UpgradeReq misses
system.l2cache.UpgradeReq_misses::total             1                       # number of UpgradeReq misses
system.l2cache.UpgradeReq_accesses::.cpu.data            2                       # number of UpgradeReq accesses(hits+misses)
system.l2cache.UpgradeReq_accesses::total            2                       # number of UpgradeReq accesses(hits+misses)
system.l2cache.UpgradeReq_miss_rate::.cpu.data     0.500000                       # miss rate for UpgradeReq accesses
system.l2cache.UpgradeReq_miss_rate::total     0.500000                       # miss rate for UpgradeReq accesses
system.l2cache.UpgradeReq_mshr_misses::.cpu.data            1                       # number of UpgradeReq MSHR misses
system.l2cache.UpgradeReq_mshr_misses::total            1                       # number of UpgradeReq MSHR misses
system.l2cache.UpgradeReq_mshr_miss_latency::.cpu.data        12400                       # number of UpgradeReq MSHR miss cycles
system.l2cache.UpgradeReq_mshr_miss_latency::total        12400                       # number of UpgradeReq MSHR miss cycles
system.l2cache.UpgradeReq_mshr_miss_rate::.cpu.data     0.500000                       # mshr miss rate for UpgradeReq accesses
system.l2cache.UpgradeReq_mshr_miss_rate::total     0.500000                       # mshr miss rate for UpgradeReq accesses
system.l2cache.UpgradeReq_avg_mshr_miss_latency::.cpu.data        12400                       # average UpgradeReq mshr miss latency
system.l2cache.UpgradeReq_avg_mshr_miss_latency::total        12400                       # average UpgradeReq mshr miss latency
system.l2cache.ReadExReq_hits::.cpu.data            5                       # number of ReadExReq hits
system.l2cache.ReadExReq_hits::total                5                       # number of ReadExReq hits
system.l2cache.ReadExReq_misses::.cpu.data            4                       # number of ReadExReq misses
system.l2cache.ReadExReq_misses::total              4                       # number of ReadExReq misses
system.l2cache.ReadExReq_miss_latency::.cpu.data       256800                       # number of ReadExReq miss cycles
system.l2cache.ReadExReq_miss_latency::total       256800                       # number of ReadExReq miss cycles
system.l2cache.ReadExReq_accesses::.cpu.data            9                       # number of ReadExReq accesses(hits+misses)
system.l2cache.ReadExReq_accesses::total            9                       # number of ReadExReq accesses(hits+misses)
system.l2cache.ReadExReq_miss_rate::.cpu.data     0.444444                       # miss rate for ReadExReq accesses
system.l2cache.ReadExReq_miss_rate::total     0.444444                       # miss rate for ReadExReq accesses
system.l2cache.ReadExReq_avg_miss_latency::.cpu.data        64200                       # average ReadExReq miss latency
system.l2cache.ReadExReq_avg_miss_latency::total        64200                       # average ReadExReq miss latency
system.l2cache.ReadExReq_mshr_misses::.cpu.data            4                       # number of ReadExReq MSHR misses
system.l2cache.ReadExReq_mshr_misses::total            4                       # number of ReadExReq MSHR misses
system.l2cache.ReadExReq_mshr_miss_latency::.cpu.data       224800                       # number of ReadExReq MSHR miss cycles
system.l2cache.ReadExReq_mshr_miss_latency::total       224800                       # number of ReadExReq MSHR miss cycles
system.l2cache.ReadExReq_mshr_miss_rate::.cpu.data     0.444444                       # mshr miss rate for ReadExReq accesses
system.l2cache.ReadExReq_mshr_miss_rate::total     0.444444                       # mshr miss rate for ReadExReq accesses
system.l2cache.ReadExReq_avg_mshr_miss_latency::.cpu.data        56200                       # average ReadExReq mshr miss latency
system.l2cache.ReadExReq_avg_mshr_miss_latency::total        56200                       # average ReadExReq mshr miss latency
system.l2cache.ReadSharedReq_hits::.cpu.inst          223                       # number of ReadSharedReq hits
system.l2cache.ReadSharedReq_hits::.cpu.data           67                       # number of ReadSharedReq hits
system.l2cache.ReadSharedReq_hits::.cpu.dcache.prefetcher            4                       # number of ReadSharedReq hits
system.l2cache.ReadSharedReq_hits::total          294                       # number of ReadSharedReq hits
system.l2cache.ReadSharedReq_misses::.cpu.inst          163                       # number of ReadSharedReq misses
system.l2cache.ReadSharedReq_misses::.cpu.data           80                       # number of ReadSharedReq misses
system.l2cache.ReadSharedReq_misses::.cpu.dcache.prefetcher           10                       # number of ReadSharedReq misses
system.l2cache.ReadSharedReq_misses::total          253                       # number of ReadSharedReq misses
system.l2cache.ReadSharedReq_miss_latency::.cpu.inst     11571600                       # number of ReadSharedReq miss cycles
system.l2cache.ReadSharedReq_miss_latency::.cpu.data      5454400                       # number of ReadSharedReq miss cycles
system.l2cache.ReadSharedReq_miss_latency::.cpu.dcache.prefetcher       651989                       # number of ReadSharedReq miss cycles
system.l2cache.ReadSharedReq_miss_latency::total     17677989                       # number of ReadSharedReq miss cycles
system.l2cache.ReadSharedReq_accesses::.cpu.inst          386                       # number of ReadSharedReq accesses(hits+misses)
system.l2cache.ReadSharedReq_accesses::.cpu.data          147                       # number of ReadSharedReq accesses(hits+misses)
system.l2cache.ReadSharedReq_accesses::.cpu.dcache.prefetcher           14                       # number of ReadSharedReq accesses(hits+misses)
system.l2cache.ReadSharedReq_accesses::total          547                       # number of ReadSharedReq accesses(hits+misses)
system.l2cache.ReadSharedReq_miss_rate::.cpu.inst     0.422280                       # miss rate for ReadSharedReq accesses
system.l2cache.ReadSharedReq_miss_rate::.cpu.data     0.544218                       # miss rate for ReadSharedReq accesses
system.l2cache.ReadSharedReq_miss_rate::.cpu.dcache.prefetcher     0.714286                       # miss rate for ReadSharedReq accesses
system.l2cache.ReadSharedReq_miss_rate::total     0.462523                       # miss rate for ReadSharedReq accesses
system.l2cache.ReadSharedReq_avg_miss_latency::.cpu.inst 70991.411043                       # average ReadSharedReq miss latency
system.l2cache.ReadSharedReq_avg_miss_latency::.cpu.data        68180                       # average ReadSharedReq miss latency
system.l2cache.ReadSharedReq_avg_miss_latency::.cpu.dcache.prefetcher 65198.900000                       # average ReadSharedReq miss latency
system.l2cache.ReadSharedReq_avg_miss_latency::total 69873.474308                       # average ReadSharedReq miss latency
system.l2cache.ReadSharedReq_mshr_misses::.cpu.inst          163                       # number of ReadSharedReq MSHR misses
system.l2cache.ReadSharedReq_mshr_misses::.cpu.data           80                       # number of ReadSharedReq MSHR misses
system.l2cache.ReadSharedReq_mshr_misses::.cpu.dcache.prefetcher           10                       # number of ReadSharedReq MSHR misses
system.l2cache.ReadSharedReq_mshr_misses::total          253                       # number of ReadSharedReq MSHR misses
system.l2cache.ReadSharedReq_mshr_miss_latency::.cpu.inst     10275600                       # number of ReadSharedReq MSHR miss cycles
system.l2cache.ReadSharedReq_mshr_miss_latency::.cpu.data      4814400                       # number of ReadSharedReq MSHR miss cycles
system.l2cache.ReadSharedReq_mshr_miss_latency::.cpu.dcache.prefetcher       571989                       # number of ReadSharedReq MSHR miss cycles
system.l2cache.ReadSharedReq_mshr_miss_latency::total     15661989                       # number of ReadSharedReq MSHR miss cycles
system.l2cache.ReadSharedReq_mshr_miss_rate::.cpu.inst     0.422280                       # mshr miss rate for ReadSharedReq accesses
system.l2cache.ReadSharedReq_mshr_miss_rate::.cpu.data     0.544218                       # mshr miss rate for ReadSharedReq accesses
system.l2cache.ReadSharedReq_mshr_miss_rate::.cpu.dcache.prefetcher     0.714286                       # mshr miss rate for ReadSharedReq accesses
system.l2cache.ReadSharedReq_mshr_miss_rate::total     0.462523                       # mshr miss rate for ReadSharedReq accesses
system.l2cache.ReadSharedReq_avg_mshr_miss_latency::.cpu.inst 63040.490798                       # average ReadSharedReq mshr miss latency
system.l2cache.ReadSharedReq_avg_mshr_miss_latency::.cpu.data        60180                       # average ReadSharedReq mshr miss latency
system.l2cache.ReadSharedReq_avg_mshr_miss_latency::.cpu.dcache.prefetcher 57198.900000                       # average ReadSharedReq mshr miss latency
system.l2cache.ReadSharedReq_avg_mshr_miss_latency::total 61905.094862                       # average ReadSharedReq mshr miss latency
system.l2cache.prefetcher.pwrStateResidencyTicks::UNDEFINED     29408000                       # Cumulative time (in ticks) in various power states
system.l2cache.tags.pwrStateResidencyTicks::UNDEFINED     29408000                       # Cumulative time (in ticks) in various power states
system.l2cache.tags.tagsinuse                    4096                       # Cycle average of tags in use
system.l2cache.tags.total_refs                  13762                       # Total number of references to valid blocks.
system.l2cache.tags.sampled_refs                 4358                       # Sample count of references to valid blocks.
system.l2cache.tags.avg_refs                 3.157871                       # Average number of references to valid blocks.
system.l2cache.tags.warmup_cycle                    0                       # Cycle when the warmup percentage was hit.
system.l2cache.tags.occ_blocks::.writebacks    42.274211                       # Average occupied blocks per requestor
system.l2cache.tags.occ_blocks::.cpu.inst  1176.399595                       # Average occupied blocks per requestor
system.l2cache.tags.occ_blocks::.cpu.data  1770.002025                       # Average occupied blocks per requestor
system.l2cache.tags.occ_blocks::.cpu.dcache.prefetcher   983.244680                       # Average occupied blocks per requestor
system.l2cache.tags.occ_blocks::.l2cache.prefetcher   124.079488                       # Average occupied blocks per requestor
system.l2cache.tags.occ_percent::.writebacks     0.010321                       # Average percentage of cache occupancy
system.l2cache.tags.occ_percent::.cpu.inst     0.287207                       # Average percentage of cache occupancy
system.l2cache.tags.occ_percent::.cpu.data     0.432129                       # Average percentage of cache occupancy
system.l2cache.tags.occ_percent::.cpu.dcache.prefetcher     0.240050                       # Average percentage of cache occupancy
system.l2cache.tags.occ_percent::.l2cache.prefetcher     0.030293                       # Average percentage of cache occupancy
system.l2cache.tags.occ_percent::total       1.000000                       # Average percentage of cache occupancy
system.l2cache.tags.occ_task_id_blocks::1022         1065                       # Occupied blocks per task id
system.l2cache.tags.occ_task_id_blocks::1024         3031                       # Occupied blocks per task id
system.l2cache.tags.age_task_id_blocks_1022::0            5                       # Occupied blocks per task id
system.l2cache.tags.age_task_id_blocks_1022::1            6                       # Occupied blocks per task id
system.l2cache.tags.age_task_id_blocks_1022::2         1008                       # Occupied blocks per task id
system.l2cache.tags.age_task_id_blocks_1022::3           46                       # Occupied blocks per task id
system.l2cache.tags.age_task_id_blocks_1024::0          171                       # Occupied blocks per task id
system.l2cache.tags.age_task_id_blocks_1024::1           80                       # Occupied blocks per task id
system.l2cache.tags.age_task_id_blocks_1024::2         2562                       # Occupied blocks per task id
system.l2cache.tags.age_task_id_blocks_1024::3          218                       # Occupied blocks per task id
system.l2cache.tags.occ_task_id_percent::1022     0.260010                       # Percentage of cache occupancy per task id
system.l2cache.tags.occ_task_id_percent::1024     0.739990                       # Percentage of cache occupancy per task id
system.l2cache.tags.tag_accesses                 9150                       # Number of tag accesses
system.l2cache.tags.data_accesses                9150                       # Number of data accesses
system.mem_ctrl.pwrStateResidencyTicks::UNDEFINED     29408000                       # Cumulative time (in ticks) in various power states
system.mem_ctrl.bytes_read::.cpu.inst           10368                       # Number of bytes read from this memory
system.mem_ctrl.bytes_read::.cpu.data            5376                       # Number of bytes read from this memory
system.mem_ctrl.bytes_read::.cpu.dcache.prefetcher          640                       # Number of bytes read from this memory
system.mem_ctrl.bytes_read::total               16384                       # Number of bytes read from this memory
system.mem_ctrl.bytes_inst_read::.cpu.inst        10368                       # Number of instructions bytes read from this memory
system.mem_ctrl.bytes_inst_read::total          10368                       # Number of instructions bytes read from this memory
system.mem_ctrl.bytes_written::.writebacks         1088                       # Number of bytes written to this memory
system.mem_ctrl.bytes_written::total             1088                       # Number of bytes written to this memory
system.mem_ctrl.num_reads::.cpu.inst              162                       # Number of read requests responded to by this memory
system.mem_ctrl.num_reads::.cpu.data               84                       # Number of read requests responded to by this memory
system.mem_ctrl.num_reads::.cpu.dcache.prefetcher           10                       # Number of read requests responded to by this memory
system.mem_ctrl.num_reads::total                  256                       # Number of read requests responded to by this memory
system.mem_ctrl.num_writes::.writebacks            17                       # Number of write requests responded to by this memory
system.mem_ctrl.num_writes::total                  17                       # Number of write requests responded to by this memory
system.mem_ctrl.bw_read::.cpu.inst          352557127                       # Total read bandwidth from this memory (bytes/s)
system.mem_ctrl.bw_read::.cpu.data          182807399                       # Total read bandwidth from this memory (bytes/s)
system.mem_ctrl.bw_read::.cpu.dcache.prefetcher     21762786                       # Total read bandwidth from this memory (bytes/s)
system.mem_ctrl.bw_read::total              557127312                       # Total read bandwidth from this memory (bytes/s)
system.mem_ctrl.bw_inst_read::.cpu.inst     352557127                       # Instruction read bandwidth from this memory (bytes/s)
system.mem_ctrl.bw_inst_read::total         352557127                       # Instruction read bandwidth from this memory (bytes/s)
system.mem_ctrl.bw_write::.writebacks        36996736                       # Write bandwidth from this memory (bytes/s)
system.mem_ctrl.bw_write::total              36996736                       # Write bandwidth from this memory (bytes/s)
system.mem_ctrl.bw_total::.writebacks        36996736                       # Total bandwidth to/from this memory (bytes/s)
system.mem_ctrl.bw_total::.cpu.inst         352557127                       # Total bandwidth to/from this memory (bytes/s)
system.mem_ctrl.bw_total::.cpu.data         182807399                       # Total bandwidth to/from this memory (bytes/s)
system.mem_ctrl.bw_total::.cpu.dcache.prefetcher     21762786                       # Total bandwidth to/from this memory (bytes/s)
system.mem_ctrl.bw_total::total             594124048                       # Total bandwidth to/from this memory (bytes/s)

---------- End Simulation Statistics   ----------
