
---------- Begin Simulation Statistics ----------
final_tick                                 1182113200                       # Number of ticks from beginning of simulation (restored from checkpoints and never reset)
host_inst_rate                                 187513                       # Simulator instruction rate (inst/s)
host_mem_usage                                4406824                       # Number of bytes of host memory used
host_op_rate                                   330003                       # Simulator op (including micro ops) rate (op/s)
host_seconds                                    12.48                       # Real time elapsed on the host
host_tick_rate                               94706914                       # Simulator tick rate (ticks/s)
sim_freq                                 1000000000000                       # Frequency of simulated ticks
sim_insts                                     2340488                       # Number of instructions simulated
sim_ops                                       4119033                       # Number of ops (including micro ops) simulated
sim_seconds                                  0.001182                       # Number of seconds simulated
sim_ticks                                  1182113200                       # Number of ticks simulated
system.cpu.branchPred.BTBCorrect                    0                       # Number of correct BTB predictions (this stat may not work properly.
system.cpu.branchPred.BTBHitPct              0.000000                       # BTB Hit Percentage
system.cpu.branchPred.BTBHits                       0                       # Number of BTB hits
system.cpu.branchPred.BTBLookups               485114                       # Number of BTB lookups
system.cpu.branchPred.RASInCorrect                  8                       # Number of incorrect RAS predictions.
system.cpu.branchPred.condIncorrect             25282                       # Number of conditional branches incorrect
system.cpu.branchPred.condPredicted            515401                       # Number of conditional branches predicted
system.cpu.branchPred.indirectHits             266592                       # Number of indirect target hits.
system.cpu.branchPred.indirectLookups          485114                       # Number of indirect predictor lookups.
system.cpu.branchPred.indirectMisses           218522                       # Number of indirect misses.
system.cpu.branchPred.lookups                  550569                       # Number of BP lookups
system.cpu.branchPred.usedRAS                   15698                       # Number of times the RAS was used to get a target.
system.cpu.branchPredindirectMispredicted        12584                       # Number of mispredicted indirect branches.
system.cpu.cc_regfile_reads                   2677000                       # number of cc regfile reads
system.cpu.cc_regfile_writes                  2116015                       # number of cc regfile writes
system.cpu.commit.amos                              0                       # Number of atomic instructions committed
system.cpu.commit.branchMispredicts             25379                       # The number of times a branch was mispredicted
system.cpu.commit.branches                     401504                       # Number of branches committed
system.cpu.commit.bw_lim_events                680318                       # number cycles where commit BW limit reached
system.cpu.commit.commitNonSpecStalls             742                       # The number of times commit has been forced to stall to communicate backwards
system.cpu.commit.commitSquashedInsts          910260                       # The number of squashed insts skipped by commit
system.cpu.commit.committedInsts              2340488                       # Number of instructions committed
system.cpu.commit.committedOps                4119033                       # Number of ops (including micro ops) committed
system.cpu.commit.committed_per_cycle::samples      2543021                       # Number of insts commited each cycle
system.cpu.commit.committed_per_cycle::mean     1.619740                       # Number of insts commited each cycle
system.cpu.commit.committed_per_cycle::stdev     1.724484                       # Number of insts commited each cycle
system.cpu.commit.committed_per_cycle::underflows            0      0.00%      0.00% # Number of insts commited each cycle
system.cpu.commit.committed_per_cycle::0      1181453     46.46%     46.46% # Number of insts commited each cycle
system.cpu.commit.committed_per_cycle::1       223959      8.81%     55.27% # Number of insts commited each cycle
system.cpu.commit.committed_per_cycle::2       198071      7.79%     63.05% # Number of insts commited each cycle
system.cpu.commit.committed_per_cycle::3       259220     10.19%     73.25% # Number of insts commited each cycle
system.cpu.commit.committed_per_cycle::4       680318     26.75%    100.00% # Number of insts commited each cycle
system.cpu.commit.committed_per_cycle::overflows            0      0.00%    100.00% # Number of insts commited each cycle
system.cpu.commit.committed_per_cycle::min_value            0                       # Number of insts commited each cycle
system.cpu.commit.committed_per_cycle::max_value            4                       # Number of insts commited each cycle
system.cpu.commit.committed_per_cycle::total      2543021                       # Number of insts commited each cycle
system.cpu.commit.fp_insts                      92479                       # Number of committed floating point instructions.
system.cpu.commit.function_calls                13714                       # Number of function calls committed.
system.cpu.commit.int_insts                   4048112                       # Number of committed integer instructions.
system.cpu.commit.loads                        554406                       # Number of loads committed
system.cpu.commit.membars                           1                       # Number of memory barriers committed
system.cpu.commit.op_class_0::No_OpClass        22496      0.55%      0.55% # Class of committed instruction
system.cpu.commit.op_class_0::IntAlu          3231520     78.45%     79.00% # Class of committed instruction
system.cpu.commit.op_class_0::IntMult            4368      0.11%     79.11% # Class of committed instruction
system.cpu.commit.op_class_0::IntDiv            37707      0.92%     80.02% # Class of committed instruction
system.cpu.commit.op_class_0::FloatAdd           3657      0.09%     80.11% # Class of committed instruction
system.cpu.commit.op_class_0::FloatCmp              0      0.00%     80.11% # Class of committed instruction
system.cpu.commit.op_class_0::FloatCvt           1216      0.03%     80.14% # Class of committed instruction
system.cpu.commit.op_class_0::FloatMult             0      0.00%     80.14% # Class of committed instruction
system.cpu.commit.op_class_0::FloatMultAcc            0      0.00%     80.14% # Class of committed instruction
system.cpu.commit.op_class_0::FloatDiv              0      0.00%     80.14% # Class of committed instruction
system.cpu.commit.op_class_0::FloatMisc             0      0.00%     80.14% # Class of committed instruction
system.cpu.commit.op_class_0::FloatSqrt             0      0.00%     80.14% # Class of committed instruction
system.cpu.commit.op_class_0::SimdAdd            6262      0.15%     80.29% # Class of committed instruction
system.cpu.commit.op_class_0::SimdAddAcc            0      0.00%     80.29% # Class of committed instruction
system.cpu.commit.op_class_0::SimdAlu           14325      0.35%     80.64% # Class of committed instruction
system.cpu.commit.op_class_0::SimdCmp               0      0.00%     80.64% # Class of committed instruction
system.cpu.commit.op_class_0::SimdCvt           15288      0.37%     81.01% # Class of committed instruction
system.cpu.commit.op_class_0::SimdMisc          13484      0.33%     81.34% # Class of committed instruction
system.cpu.commit.op_class_0::SimdMult              0      0.00%     81.34% # Class of committed instruction
system.cpu.commit.op_class_0::SimdMultAcc            0      0.00%     81.34% # Class of committed instruction
system.cpu.commit.op_class_0::SimdShift          1162      0.03%     81.37% # Class of committed instruction
system.cpu.commit.op_class_0::SimdShiftAcc            0      0.00%     81.37% # Class of committed instruction
system.cpu.commit.op_class_0::SimdDiv               0      0.00%     81.37% # Class of committed instruction
system.cpu.commit.op_class_0::SimdSqrt              0      0.00%     81.37% # Class of committed instruction
system.cpu.commit.op_class_0::SimdFloatAdd            0      0.00%     81.37% # Class of committed instruction
system.cpu.commit.op_class_0::SimdFloatAlu            0      0.00%     81.37% # Class of committed instruction
system.cpu.commit.op_class_0::SimdFloatCmp            0      0.00%     81.37% # Class of committed instruction
system.cpu.commit.op_class_0::SimdFloatCvt            0      0.00%     81.37% # Class of committed instruction
system.cpu.commit.op_class_0::SimdFloatDiv            0      0.00%     81.37% # Class of committed instruction
system.cpu.commit.op_class_0::SimdFloatMisc            0      0.00%     81.37% # Class of committed instruction
system.cpu.commit.op_class_0::SimdFloatMult            0      0.00%     81.37% # Class of committed instruction
system.cpu.commit.op_class_0::SimdFloatMultAcc            0      0.00%     81.37% # Class of committed instruction
system.cpu.commit.op_class_0::SimdFloatSqrt            0      0.00%     81.37% # Class of committed instruction
system.cpu.commit.op_class_0::SimdReduceAdd            0      0.00%     81.37% # Class of committed instruction
system.cpu.commit.op_class_0::SimdReduceAlu            0      0.00%     81.37% # Class of committed instruction
system.cpu.commit.op_class_0::SimdReduceCmp            0      0.00%     81.37% # Class of committed instruction
system.cpu.commit.op_class_0::SimdFloatReduceAdd            0      0.00%     81.37% # Class of committed instruction
system.cpu.commit.op_class_0::SimdFloatReduceCmp            0      0.00%     81.37% # Class of committed instruction
system.cpu.commit.op_class_0::SimdAes               0      0.00%     81.37% # Class of committed instruction
system.cpu.commit.op_class_0::SimdAesMix            0      0.00%     81.37% # Class of committed instruction
system.cpu.commit.op_class_0::SimdSha1Hash            0      0.00%     81.37% # Class of committed instruction
system.cpu.commit.op_class_0::SimdSha1Hash2            0      0.00%     81.37% # Class of committed instruction
system.cpu.commit.op_class_0::SimdSha256Hash            0      0.00%     81.37% # Class of committed instruction
system.cpu.commit.op_class_0::SimdSha256Hash2            0      0.00%     81.37% # Class of committed instruction
system.cpu.commit.op_class_0::SimdShaSigma2            0      0.00%     81.37% # Class of committed instruction
system.cpu.commit.op_class_0::SimdShaSigma3            0      0.00%     81.37% # Class of committed instruction
system.cpu.commit.op_class_0::SimdPredAlu            0      0.00%     81.37% # Class of committed instruction
system.cpu.commit.op_class_0::MemRead          533088     12.94%     94.31% # Class of committed instruction
system.cpu.commit.op_class_0::MemWrite         200519      4.87%     99.18% # Class of committed instruction
system.cpu.commit.op_class_0::FloatMemRead        21318      0.52%     99.69% # Class of committed instruction
system.cpu.commit.op_class_0::FloatMemWrite        12623      0.31%    100.00% # Class of committed instruction
system.cpu.commit.op_class_0::IprAccess             0      0.00%    100.00% # Class of committed instruction
system.cpu.commit.op_class_0::InstPrefetch            0      0.00%    100.00% # Class of committed instruction
system.cpu.commit.op_class_0::total           4119033                       # Class of committed instruction
system.cpu.commit.refs                         767548                       # Number of memory references committed
system.cpu.commit.swp_count                         0                       # Number of s/w prefetches committed
system.cpu.commit.vec_insts                         0                       # Number of committed Vector instructions.
system.cpu.committedInsts                     2340488                       # Number of Instructions Simulated
system.cpu.committedOps                       4119033                       # Number of Ops (including micro ops) Simulated
system.cpu.cpi                               1.262679                       # CPI: Cycles Per Instruction
system.cpu.cpi_total                         1.262679                       # CPI: Total CPI of All Threads
system.cpu.dcache.prefetcher.num_hwpf_issued         8133                       # number of hwpf issued
system.cpu.dcache.prefetcher.pfBufferHit        32421                       # number of redundant prefetches already in prefetch queue
system.cpu.dcache.prefetcher.pfIdentified        47413                       # number of prefetch candidates identified
system.cpu.dcache.prefetcher.pfInCache              0                       # number of redundant prefetches already in cache/mshr dropped
system.cpu.dcache.prefetcher.pfRemovedFull            0                       # number of prefetches dropped due to prefetch queue size
system.cpu.dcache.prefetcher.pfSpanPage          4391                       # number of prefetches that crossed the page
system.cpu.decode.BlockedCycles               1029281                       # Number of cycles decode is blocked
system.cpu.decode.DecodedInsts                5254700                       # Number of instructions handled by decode
system.cpu.decode.IdleCycles                   347624                       # Number of cycles decode is idle
system.cpu.decode.RunCycles                   1298038                       # Number of cycles decode is running
system.cpu.decode.SquashCycles                  25457                       # Number of cycles decode is squashing
system.cpu.decode.UnblockCycles                 90707                       # Number of cycles decode is unblocking
system.cpu.dtb.rdAccesses                      640936                       # TLB accesses on read requests
system.cpu.dtb.rdMisses                          2138                       # TLB misses on read requests
system.cpu.dtb.wrAccesses                      233124                       # TLB accesses on write requests
system.cpu.dtb.wrMisses                           173                       # TLB misses on write requests
system.cpu.fetch.Branches                      550569                       # Number of branches that fetch encountered
system.cpu.fetch.CacheLines                    291060                       # Number of cache lines fetched
system.cpu.fetch.Cycles                       2382672                       # Number of cycles fetch has run and was not squashing or blocked
system.cpu.fetch.IcacheSquashes                  4710                       # Number of outstanding Icache misses that were squashed
system.cpu.fetch.Insts                        3131262                       # Number of instructions fetch has processed
system.cpu.fetch.MiscStallCycles                  141                       # Number of cycles fetch has spent waiting on interrupts, or bad addresses, or out of MSHRs
system.cpu.fetch.PendingQuiesceStallCycles            6                       # Number of stall cycles due to pending quiesce instructions
system.cpu.fetch.PendingTrapStallCycles           705                       # Number of stall cycles due to pending traps
system.cpu.fetch.SquashCycles                   50914                       # Number of cycles fetch has spent squashing
system.cpu.fetch.branchRate                  0.186300                       # Number of branch fetches per cycle
system.cpu.fetch.icacheStallCycles             382126                       # Number of cycles fetch is stalled on an Icache miss
system.cpu.fetch.predictedBranches             282290                       # Number of branches that fetch has predicted taken
system.cpu.fetch.rate                        1.059547                       # Number of inst fetches per cycle
system.cpu.fetch.rateDist::samples            2791107                       # Number of instructions fetched each cycle (Total)
system.cpu.fetch.rateDist::mean              1.982594                       # Number of instructions fetched each cycle (Total)
system.cpu.fetch.rateDist::stdev             1.926036                       # Number of instructions fetched each cycle (Total)
system.cpu.fetch.rateDist::underflows               0      0.00%      0.00% # Number of instructions fetched each cycle (Total)
system.cpu.fetch.rateDist::0                  1282212     45.94%     45.94% # Number of instructions fetched each cycle (Total)
system.cpu.fetch.rateDist::1                    93699      3.36%     49.30% # Number of instructions fetched each cycle (Total)
system.cpu.fetch.rateDist::2                    66997      2.40%     51.70% # Number of instructions fetched each cycle (Total)
system.cpu.fetch.rateDist::3                    86856      3.11%     54.81% # Number of instructions fetched each cycle (Total)
system.cpu.fetch.rateDist::4                  1261343     45.19%    100.00% # Number of instructions fetched each cycle (Total)
system.cpu.fetch.rateDist::overflows                0      0.00%    100.00% # Number of instructions fetched each cycle (Total)
system.cpu.fetch.rateDist::min_value                0                       # Number of instructions fetched each cycle (Total)
system.cpu.fetch.rateDist::max_value                4                       # Number of instructions fetched each cycle (Total)
system.cpu.fetch.rateDist::total              2791107                       # Number of instructions fetched each cycle (Total)
system.cpu.fp_regfile_reads                    152542                       # number of floating regfile reads
system.cpu.fp_regfile_writes                    82726                       # number of floating regfile writes
system.cpu.fuPool.fu_ticks_busy::IntALU(0)    245002000                       # Total ticks fu was busy
system.cpu.fuPool.fu_ticks_busy::IntALU(1)    245001600                       # Total ticks fu was busy
system.cpu.fuPool.fu_ticks_busy::IntALU(2)    245001600                       # Total ticks fu was busy
system.cpu.fuPool.fu_ticks_busy::IntALU(3)    245001600                       # Total ticks fu was busy
system.cpu.fuPool.fu_ticks_busy::IntALU(4)    245001600                       # Total ticks fu was busy
system.cpu.fuPool.fu_ticks_busy::IntALU(5)    245001600                       # Total ticks fu was busy
system.cpu.fuPool.fu_ticks_busy::IntMultDiv(0)      9154000                       # Total ticks fu was busy
system.cpu.fuPool.fu_ticks_busy::IntMultDiv(1)      9154000                       # Total ticks fu was busy
system.cpu.fuPool.fu_ticks_busy::FP_ALU(0)       646800                       # Total ticks fu was busy
system.cpu.fuPool.fu_ticks_busy::FP_ALU(1)       646800                       # Total ticks fu was busy
system.cpu.fuPool.fu_ticks_busy::FP_ALU(2)       646400                       # Total ticks fu was busy
system.cpu.fuPool.fu_ticks_busy::FP_ALU(3)       646400                       # Total ticks fu was busy
system.cpu.fuPool.fu_ticks_busy::FP_MultDiv(0)            0                       # Total ticks fu was busy
system.cpu.fuPool.fu_ticks_busy::FP_MultDiv(1)            0                       # Total ticks fu was busy
system.cpu.fuPool.fu_ticks_busy::SIMD_Unit(0)      5801600                       # Total ticks fu was busy
system.cpu.fuPool.fu_ticks_busy::SIMD_Unit(1)      5857200                       # Total ticks fu was busy
system.cpu.fuPool.fu_ticks_busy::SIMD_Unit(2)      5792400                       # Total ticks fu was busy
system.cpu.fuPool.fu_ticks_busy::SIMD_Unit(3)      5829200                       # Total ticks fu was busy
system.cpu.fuPool.fu_ticks_busy::PredALU(0)            0                       # Total ticks fu was busy
system.cpu.fuPool.fu_ticks_busy::RdWrPort(0)     88866400                       # Total ticks fu was busy
system.cpu.fuPool.fu_ticks_busy::RdWrPort(1)     88863600                       # Total ticks fu was busy
system.cpu.fuPool.fu_ticks_busy::RdWrPort(2)     88855600                       # Total ticks fu was busy
system.cpu.fuPool.fu_ticks_busy::RdWrPort(3)     88878800                       # Total ticks fu was busy
system.cpu.fuPool.fu_ticks_busy::IprPort(0)            0                       # Total ticks fu was busy
system.cpu.fuPool.fu_ticks_busy::total     1869649200                       # Total ticks fu was busy
system.cpu.icache.prefetcher.num_hwpf_issued            0                       # number of hwpf issued
system.cpu.icache.prefetcher.pfBufferHit            0                       # number of redundant prefetches already in prefetch queue
system.cpu.icache.prefetcher.pfIdentified            0                       # number of prefetch candidates identified
system.cpu.icache.prefetcher.pfInCache              0                       # number of redundant prefetches already in cache/mshr dropped
system.cpu.icache.prefetcher.pfRemovedFull            0                       # number of prefetches dropped due to prefetch queue size
system.cpu.icache.prefetcher.pfSpanPage             0                       # number of prefetches that crossed the page
system.cpu.idleCycles                          164177                       # Total number of cycles that the CPU has spent unscheduled due to idling
system.cpu.iew.branchMispredicts                30022                       # Number of branch mispredicts detected at execute
system.cpu.iew.exec_branches                   433465                       # Number of branches executed
system.cpu.iew.exec_nop                             0                       # number of nop insts executed
system.cpu.iew.exec_rate                     1.579179                       # Inst execution rate
system.cpu.iew.exec_refs                       875166                       # number of memory reference insts executed
system.cpu.iew.exec_stores                     233006                       # Number of stores executed
system.cpu.iew.exec_swp                             0                       # number of swp insts executed
system.cpu.iew.iewBlockCycles                  694594                       # Number of cycles IEW is blocking
system.cpu.iew.iewDispLoadInsts                674196                       # Number of dispatched load instructions
system.cpu.iew.iewDispNonSpecInsts                930                       # Number of dispatched non-speculative instructions
system.cpu.iew.iewDispSquashedInsts               596                       # Number of squashed instructions skipped by dispatch
system.cpu.iew.iewDispStoreInsts               244326                       # Number of dispatched store instructions
system.cpu.iew.iewDispatchedInsts             5029233                       # Number of instructions dispatched to IQ
system.cpu.iew.iewExecLoadInsts                642160                       # Number of load instructions executed
system.cpu.iew.iewExecSquashedInsts             36016                       # Number of squashed instructions skipped in execute
system.cpu.iew.iewExecutedInsts               4666921                       # Number of executed instructions
system.cpu.iew.iewIQFullEvents                   3234                       # Number of times the IQ has become full, causing a stall
system.cpu.iew.iewIdleCycles                        0                       # Number of cycles IEW is idle
system.cpu.iew.iewLSQFullEvents                  9220                       # Number of times the LSQ has become full, causing a stall
system.cpu.iew.iewSquashCycles                  25457                       # Number of cycles IEW is squashing
system.cpu.iew.iewUnblockCycles                 15275                       # Number of cycles IEW is unblocking
system.cpu.iew.lsq.thread0.blockedLoads             0                       # Number of blocked loads due to partial load-store forwarding
system.cpu.iew.lsq.thread0.cacheBlocked           601                       # Number of times an access to memory failed due to the cache being blocked
system.cpu.iew.lsq.thread0.forwLoads            45021                       # Number of loads that had data forwarded from stores
system.cpu.iew.lsq.thread0.ignoredResponses          274                       # Number of memory responses ignored because the instruction is squashed
system.cpu.iew.lsq.thread0.invAddrLoads             0                       # Number of loads ignored due to an invalid address
system.cpu.iew.lsq.thread0.invAddrSwpfs             0                       # Number of software prefetches ignored due to an invalid address
system.cpu.iew.lsq.thread0.memOrderViolation           89                       # Number of memory ordering violations
system.cpu.iew.lsq.thread0.rescheduledLoads           54                       # Number of loads that were rescheduled
system.cpu.iew.lsq.thread0.squashedLoads       119788                       # Number of loads squashed
system.cpu.iew.lsq.thread0.squashedStores        31183                       # Number of stores squashed
system.cpu.iew.memOrderViolationEvents             89                       # Number of memory order violations
system.cpu.iew.predictedNotTakenIncorrect        21381                       # Number of branches that were predicted not taken incorrectly
system.cpu.iew.predictedTakenIncorrect           8641                       # Number of branches that were predicted taken incorrectly
system.cpu.iew.wb_consumers                   6395065                       # num instructions consuming a value
system.cpu.iew.wb_count                       4644073                       # cumulative count of insts written-back
system.cpu.iew.wb_fanout                     0.572446                       # average fanout of values written-back
system.cpu.iew.wb_producers                   3660830                       # num instructions producing a value
system.cpu.iew.wb_rate                       1.571447                       # insts written-back per cycle
system.cpu.iew.wb_sent                        4651379                       # cumulative count of insts sent to commit
system.cpu.int_regfile_reads                  7202569                       # number of integer regfile reads
system.cpu.int_regfile_writes                 3972426                       # number of integer regfile writes
system.cpu.ipc                               0.791967                       # IPC: Instructions Per Cycle
system.cpu.ipc_total                         0.791967                       # IPC: Total IPC of All Threads
system.cpu.iq.FU_type_0::No_OpClass             28814      0.61%      0.61% # Type of FU issued
system.cpu.iq.FU_type_0::IntAlu               3675026     78.14%     78.76% # Type of FU issued
system.cpu.iq.FU_type_0::IntMult                 4392      0.09%     78.85% # Type of FU issued
system.cpu.iq.FU_type_0::IntDiv                 41378      0.88%     79.73% # Type of FU issued
system.cpu.iq.FU_type_0::FloatAdd                5212      0.11%     79.84% # Type of FU issued
system.cpu.iq.FU_type_0::FloatCmp                   0      0.00%     79.84% # Type of FU issued
system.cpu.iq.FU_type_0::FloatCvt                1254      0.03%     79.87% # Type of FU issued
system.cpu.iq.FU_type_0::FloatMult                  0      0.00%     79.87% # Type of FU issued
system.cpu.iq.FU_type_0::FloatMultAcc               0      0.00%     79.87% # Type of FU issued
system.cpu.iq.FU_type_0::FloatDiv                   0      0.00%     79.87% # Type of FU issued
system.cpu.iq.FU_type_0::FloatMisc                  0      0.00%     79.87% # Type of FU issued
system.cpu.iq.FU_type_0::FloatSqrt                  0      0.00%     79.87% # Type of FU issued
system.cpu.iq.FU_type_0::SimdAdd                 6920      0.15%     80.01% # Type of FU issued
system.cpu.iq.FU_type_0::SimdAddAcc                 0      0.00%     80.01% # Type of FU issued
system.cpu.iq.FU_type_0::SimdAlu                17936      0.38%     80.40% # Type of FU issued
system.cpu.iq.FU_type_0::SimdCmp                    0      0.00%     80.40% # Type of FU issued
system.cpu.iq.FU_type_0::SimdCvt                17035      0.36%     80.76% # Type of FU issued
system.cpu.iq.FU_type_0::SimdMisc               14065      0.30%     81.06% # Type of FU issued
system.cpu.iq.FU_type_0::SimdMult                   0      0.00%     81.06% # Type of FU issued
system.cpu.iq.FU_type_0::SimdMultAcc                0      0.00%     81.06% # Type of FU issued
system.cpu.iq.FU_type_0::SimdShift               2245      0.05%     81.10% # Type of FU issued
system.cpu.iq.FU_type_0::SimdShiftAcc               0      0.00%     81.10% # Type of FU issued
system.cpu.iq.FU_type_0::SimdDiv                    0      0.00%     81.10% # Type of FU issued
system.cpu.iq.FU_type_0::SimdSqrt                   0      0.00%     81.10% # Type of FU issued
system.cpu.iq.FU_type_0::SimdFloatAdd               0      0.00%     81.10% # Type of FU issued
system.cpu.iq.FU_type_0::SimdFloatAlu               0      0.00%     81.10% # Type of FU issued
system.cpu.iq.FU_type_0::SimdFloatCmp               0      0.00%     81.10% # Type of FU issued
system.cpu.iq.FU_type_0::SimdFloatCvt               0      0.00%     81.10% # Type of FU issued
system.cpu.iq.FU_type_0::SimdFloatDiv               0      0.00%     81.10% # Type of FU issued
system.cpu.iq.FU_type_0::SimdFloatMisc              0      0.00%     81.10% # Type of FU issued
system.cpu.iq.FU_type_0::SimdFloatMult              0      0.00%     81.10% # Type of FU issued
system.cpu.iq.FU_type_0::SimdFloatMultAcc            0      0.00%     81.10% # Type of FU issued
system.cpu.iq.FU_type_0::SimdFloatSqrt              0      0.00%     81.10% # Type of FU issued
system.cpu.iq.FU_type_0::SimdReduceAdd              0      0.00%     81.10% # Type of FU issued
system.cpu.iq.FU_type_0::SimdReduceAlu              0      0.00%     81.10% # Type of FU issued
system.cpu.iq.FU_type_0::SimdReduceCmp              0      0.00%     81.10% # Type of FU issued
system.cpu.iq.FU_type_0::SimdFloatReduceAdd            0      0.00%     81.10% # Type of FU issued
system.cpu.iq.FU_type_0::SimdFloatReduceCmp            0      0.00%     81.10% # Type of FU issued
system.cpu.iq.FU_type_0::SimdAes                    0      0.00%     81.10% # Type of FU issued
system.cpu.iq.FU_type_0::SimdAesMix                 0      0.00%     81.10% # Type of FU issued
system.cpu.iq.FU_type_0::SimdSha1Hash               0      0.00%     81.10% # Type of FU issued
system.cpu.iq.FU_type_0::SimdSha1Hash2              0      0.00%     81.10% # Type of FU issued
system.cpu.iq.FU_type_0::SimdSha256Hash             0      0.00%     81.10% # Type of FU issued
system.cpu.iq.FU_type_0::SimdSha256Hash2            0      0.00%     81.10% # Type of FU issued
system.cpu.iq.FU_type_0::SimdShaSigma2              0      0.00%     81.10% # Type of FU issued
system.cpu.iq.FU_type_0::SimdShaSigma3              0      0.00%     81.10% # Type of FU issued
system.cpu.iq.FU_type_0::SimdPredAlu                0      0.00%     81.10% # Type of FU issued
system.cpu.iq.FU_type_0::MemRead               625812     13.31%     94.41% # Type of FU issued
system.cpu.iq.FU_type_0::MemWrite              221656      4.71%     99.12% # Type of FU issued
system.cpu.iq.FU_type_0::FloatMemRead           27134      0.58%     99.70% # Type of FU issued
system.cpu.iq.FU_type_0::FloatMemWrite          14061      0.30%    100.00% # Type of FU issued
system.cpu.iq.FU_type_0::IprAccess                  0      0.00%    100.00% # Type of FU issued
system.cpu.iq.FU_type_0::InstPrefetch               0      0.00%    100.00% # Type of FU issued
system.cpu.iq.FU_type_0::total                4702940                       # Type of FU issued
system.cpu.iq.fp_alu_accesses                  109185                       # Number of floating point alu accesses
system.cpu.iq.fp_inst_queue_reads              219754                       # Number of floating instruction queue reads
system.cpu.iq.fp_inst_queue_wakeup_accesses       105699                       # Number of floating instruction queue wakeup accesses
system.cpu.iq.fp_inst_queue_writes             149149                       # Number of floating instruction queue writes
system.cpu.iq.fu_busy_cnt                           0                       # FU busy when requested
system.cpu.iq.fu_busy_rate                          0                       # FU busy rate (busy events/executed inst)
system.cpu.iq.fu_full::No_OpClass                   0                       # attempts to use FU when none available
system.cpu.iq.fu_full::IntAlu                       0                       # attempts to use FU when none available
system.cpu.iq.fu_full::IntMult                      0                       # attempts to use FU when none available
system.cpu.iq.fu_full::IntDiv                       0                       # attempts to use FU when none available
system.cpu.iq.fu_full::FloatAdd                     0                       # attempts to use FU when none available
system.cpu.iq.fu_full::FloatCmp                     0                       # attempts to use FU when none available
system.cpu.iq.fu_full::FloatCvt                     0                       # attempts to use FU when none available
system.cpu.iq.fu_full::FloatMult                    0                       # attempts to use FU when none available
system.cpu.iq.fu_full::FloatMultAcc                 0                       # attempts to use FU when none available
system.cpu.iq.fu_full::FloatDiv                     0                       # attempts to use FU when none available
system.cpu.iq.fu_full::FloatMisc                    0                       # attempts to use FU when none available
system.cpu.iq.fu_full::FloatSqrt                    0                       # attempts to use FU when none available
system.cpu.iq.fu_full::SimdAdd                      0                       # attempts to use FU when none available
system.cpu.iq.fu_full::SimdAddAcc                   0                       # attempts to use FU when none available
system.cpu.iq.fu_full::SimdAlu                      0                       # attempts to use FU when none available
system.cpu.iq.fu_full::SimdCmp                      0                       # attempts to use FU when none available
system.cpu.iq.fu_full::SimdCvt                      0                       # attempts to use FU when none available
system.cpu.iq.fu_full::SimdMisc                     0                       # attempts to use FU when none available
system.cpu.iq.fu_full::SimdMult                     0                       # attempts to use FU when none available
system.cpu.iq.fu_full::SimdMultAcc                  0                       # attempts to use FU when none available
system.cpu.iq.fu_full::SimdShift                    0                       # attempts to use FU when none available
system.cpu.iq.fu_full::SimdShiftAcc                 0                       # attempts to use FU when none available
system.cpu.iq.fu_full::SimdDiv                      0                       # attempts to use FU when none available
system.cpu.iq.fu_full::SimdSqrt                     0                       # attempts to use FU when none available
system.cpu.iq.fu_full::SimdFloatAdd                 0                       # attempts to use FU when none available
system.cpu.iq.fu_full::SimdFloatAlu                 0                       # attempts to use FU when none available
system.cpu.iq.fu_full::SimdFloatCmp                 0                       # attempts to use FU when none available
system.cpu.iq.fu_full::SimdFloatCvt                 0                       # attempts to use FU when none available
system.cpu.iq.fu_full::SimdFloatDiv                 0                       # attempts to use FU when none available
system.cpu.iq.fu_full::SimdFloatMisc                0                       # attempts to use FU when none available
system.cpu.iq.fu_full::SimdFloatMult                0                       # attempts to use FU when none available
system.cpu.iq.fu_full::SimdFloatMultAcc             0                       # attempts to use FU when none available
system.cpu.iq.fu_full::SimdFloatSqrt                0                       # attempts to use FU when none available
system.cpu.iq.fu_full::SimdReduceAdd                0                       # attempts to use FU when none available
system.cpu.iq.fu_full::SimdReduceAlu                0                       # attempts to use FU when none available
system.cpu.iq.fu_full::SimdReduceCmp                0                       # attempts to use FU when none available
system.cpu.iq.fu_full::SimdFloatReduceAdd            0                       # attempts to use FU when none available
system.cpu.iq.fu_full::SimdFloatReduceCmp            0                       # attempts to use FU when none available
system.cpu.iq.fu_full::SimdAes                      0                       # attempts to use FU when none available
system.cpu.iq.fu_full::SimdAesMix                   0                       # attempts to use FU when none available
system.cpu.iq.fu_full::SimdSha1Hash                 0                       # attempts to use FU when none available
system.cpu.iq.fu_full::SimdSha1Hash2                0                       # attempts to use FU when none available
system.cpu.iq.fu_full::SimdSha256Hash               0                       # attempts to use FU when none available
system.cpu.iq.fu_full::SimdSha256Hash2              0                       # attempts to use FU when none available
system.cpu.iq.fu_full::SimdShaSigma2                0                       # attempts to use FU when none available
system.cpu.iq.fu_full::SimdShaSigma3                0                       # attempts to use FU when none available
system.cpu.iq.fu_full::SimdPredAlu                  0                       # attempts to use FU when none available
system.cpu.iq.fu_full::MemRead                      0                       # attempts to use FU when none available
system.cpu.iq.fu_full::MemWrite                     0                       # attempts to use FU when none available
system.cpu.iq.fu_full::FloatMemRead                 0                       # attempts to use FU when none available
system.cpu.iq.fu_full::FloatMemWrite                0                       # attempts to use FU when none available
system.cpu.iq.fu_full::IprAccess                    0                       # attempts to use FU when none available
system.cpu.iq.fu_full::InstPrefetch                 0                       # attempts to use FU when none available
system.cpu.iq.int_alu_accesses                4564941                       # Number of integer alu accesses
system.cpu.iq.int_inst_queue_reads           11996583                       # Number of integer instruction queue reads
system.cpu.iq.int_inst_queue_wakeup_accesses      4538374                       # Number of integer instruction queue wakeup accesses
system.cpu.iq.int_inst_queue_writes           5790359                       # Number of integer instruction queue writes
system.cpu.iq.iqInstsAdded                    5028134                       # Number of instructions added to the IQ (excludes non-spec)
system.cpu.iq.iqInstsIssued                   4702940                       # Number of instructions issued
system.cpu.iq.iqNonSpecInstsAdded                1099                       # Number of non-speculative instructions added to the IQ
system.cpu.iq.iqSquashedInstsExamined          910189                       # Number of squashed instructions iterated over during squash; mainly for profiling
system.cpu.iq.iqSquashedInstsIssued             19353                       # Number of squashed instructions issued
system.cpu.iq.iqSquashedNonSpecRemoved            357                       # Number of squashed non-spec instructions that were removed
system.cpu.iq.iqSquashedOperandsExamined      1350497                       # Number of squashed operands that are examined and possibly removed from graph
system.cpu.iq.issued_per_cycle::samples       2791107                       # Number of insts issued each cycle
system.cpu.iq.issued_per_cycle::mean         1.684973                       # Number of insts issued each cycle
system.cpu.iq.issued_per_cycle::stdev        1.663801                       # Number of insts issued each cycle
system.cpu.iq.issued_per_cycle::underflows            0      0.00%      0.00% # Number of insts issued each cycle
system.cpu.iq.issued_per_cycle::0             1191442     42.69%     42.69% # Number of insts issued each cycle
system.cpu.iq.issued_per_cycle::1              207187      7.42%     50.11% # Number of insts issued each cycle
system.cpu.iq.issued_per_cycle::2              341519     12.24%     62.35% # Number of insts issued each cycle
system.cpu.iq.issued_per_cycle::3              391121     14.01%     76.36% # Number of insts issued each cycle
system.cpu.iq.issued_per_cycle::4              659838     23.64%    100.00% # Number of insts issued each cycle
system.cpu.iq.issued_per_cycle::overflows            0      0.00%    100.00% # Number of insts issued each cycle
system.cpu.iq.issued_per_cycle::min_value            0                       # Number of insts issued each cycle
system.cpu.iq.issued_per_cycle::max_value            4                       # Number of insts issued each cycle
system.cpu.iq.issued_per_cycle::total         2791107                       # Number of insts issued each cycle
system.cpu.iq.rate                           1.591367                       # Inst issue rate
system.cpu.iq.vec_alu_accesses                      0                       # Number of vector alu accesses
system.cpu.iq.vec_inst_queue_reads                  0                       # Number of vector instruction queue reads
system.cpu.iq.vec_inst_queue_wakeup_accesses            0                       # Number of vector instruction queue wakeup accesses
system.cpu.iq.vec_inst_queue_writes                 0                       # Number of vector instruction queue writes
system.cpu.itb.rdAccesses                           0                       # TLB accesses on read requests
system.cpu.itb.rdMisses                             0                       # TLB misses on read requests
system.cpu.itb.wrAccesses                      291177                       # TLB accesses on write requests
system.cpu.itb.wrMisses                           368                       # TLB misses on write requests
system.cpu.memDep0.conflictingLoads             11263                       # Number of conflicting loads.
system.cpu.memDep0.conflictingStores             4400                       # Number of conflicting stores.
system.cpu.memDep0.insertedLoads               674196                       # Number of loads inserted to the mem dependence unit.
system.cpu.memDep0.insertedStores              244326                       # Number of stores inserted to the mem dependence unit.
system.cpu.misc_regfile_reads                 1780236                       # number of misc regfile reads
system.cpu.misc_regfile_writes                    684                       # number of misc regfile writes
system.cpu.numCycles                          2955284                       # number of cpu cycles simulated
system.cpu.numWorkItemsCompleted                    0                       # number of work items this cpu completed
system.cpu.numWorkItemsStarted                      0                       # number of work items this cpu started
system.cpu.process.numSyscalls                     57                       # Number of system calls
system.cpu.rename.BlockCycles                  842629                       # Number of cycles rename is blocking
system.cpu.rename.CommittedMaps               5529661                       # Number of HB maps that are committed
system.cpu.rename.FullRegisterEvents               18                       # Number of times there has been no free registers
system.cpu.rename.IQFullEvents                  47291                       # Number of times rename has blocked due to IQ full
system.cpu.rename.IdleCycles                   399200                       # Number of cycles rename is idle
system.cpu.rename.LQFullEvents                  15627                       # Number of times rename has blocked due to LQ full
system.cpu.rename.ROBFullEvents                  4783                       # Number of times rename has blocked due to ROB full
system.cpu.rename.RenameLookups              13492638                       # Number of register rename lookups that rename has made
system.cpu.rename.RenamedInsts                5176873                       # Number of instructions processed by rename
system.cpu.rename.RenamedOperands             6956888                       # Number of destination operands rename has renamed
system.cpu.rename.RunCycles                   1328560                       # Number of cycles rename is running
system.cpu.rename.SQFullEvents                  74691                       # Number of times rename has blocked due to SQ full
system.cpu.rename.SquashCycles                  25457                       # Number of cycles rename is squashing
system.cpu.rename.UnblockCycles                175540                       # Number of cycles rename is unblocking
system.cpu.rename.UndoneMaps                  1427204                       # Number of HB maps that are undone due to squashing
system.cpu.rename.fp_rename_lookups            187235                       # Number of floating rename lookups
system.cpu.rename.int_rename_lookups          8171480                       # Number of integer rename lookups
system.cpu.rename.serializeStallCycles          19721                       # count of cycles rename stalled for serializing inst
system.cpu.rename.serializingInsts                882                       # count of serializing insts renamed
system.cpu.rename.skidInsts                    210096                       # count of insts added to the skid buffer
system.cpu.rename.tempSerializingInsts            934                       # count of temporary serializing insts renamed
system.cpu.rob.rob_reads                      6891996                       # The number of ROB reads
system.cpu.rob.rob_writes                    10307623                       # The number of ROB writes
system.cpu.timesIdled                            1600                       # Number of times that the entire CPU went into an idle state and unscheduled itself
system.l2bus.snoop_filter.hit_multi_requests           12                       # Number of requests hitting in the snoop filter with multiple (>1) holders of the requested data.
system.l2bus.snoop_filter.hit_multi_snoops            0                       # Number of snoops hitting in the snoop filter with multiple (>1) holders of the requested data.
system.l2bus.snoop_filter.hit_single_requests        18529                       # Number of requests hitting in the snoop filter with a single holder of the requested data.
system.l2bus.snoop_filter.hit_single_snoops          437                       # Number of snoops hitting in the snoop filter with a single holder of the requested data.
system.l2bus.snoop_filter.tot_requests          38338                       # Total number of requests made to the snoop filter.
system.l2bus.snoop_filter.tot_snoops              437                       # Total number of snoops made to the snoop filter.
system.l2cache.prefetcher.num_hwpf_issued          699                       # number of hwpf issued
system.l2cache.prefetcher.pfBufferHit               0                       # number of redundant prefetches already in prefetch queue
system.l2cache.prefetcher.pfIdentified            699                       # number of prefetch candidates identified
system.l2cache.prefetcher.pfInCache                 0                       # number of redundant prefetches already in cache/mshr dropped
system.l2cache.prefetcher.pfRemovedFull             0                       # number of prefetches dropped due to prefetch queue size
system.l2cache.prefetcher.pfSpanPage              129                       # number of prefetches that crossed the page
system.membus.snoop_filter.hit_multi_requests            0                       # Number of requests hitting in the snoop filter with multiple (>1) holders of the requested data.
system.membus.snoop_filter.hit_multi_snoops            0                       # Number of snoops hitting in the snoop filter with multiple (>1) holders of the requested data.
system.membus.snoop_filter.hit_single_requests         9524                       # Number of requests hitting in the snoop filter with a single holder of the requested data.
system.membus.snoop_filter.hit_single_snoops            0                       # Number of snoops hitting in the snoop filter with a single holder of the requested data.
system.membus.snoop_filter.tot_requests         23174                       # Total number of requests made to the snoop filter.
system.membus.snoop_filter.tot_snoops               0                       # Total number of snoops made to the snoop filter.
system.membus.pwrStateResidencyTicks::UNDEFINED   1182113200                       # Cumulative time (in ticks) in various power states
system.membus.trans_dist::ReadResp              12203                       # Transaction distribution
system.membus.trans_dist::WritebackDirty         1342                       # Transaction distribution
system.membus.trans_dist::CleanEvict             8182                       # Transaction distribution
system.membus.trans_dist::ReadExReq              1447                       # Transaction distribution
system.membus.trans_dist::ReadExResp             1447                       # Transaction distribution
system.membus.trans_dist::ReadSharedReq         12203                       # Transaction distribution
system.membus.pkt_count_system.l2cache.mem_side::system.mem_ctrl.port        36824                       # Packet count per connected master and slave (bytes)
system.membus.pkt_count_system.l2cache.mem_side::total        36824                       # Packet count per connected master and slave (bytes)
system.membus.pkt_count::total                  36824                       # Packet count per connected master and slave (bytes)
system.membus.pkt_size_system.l2cache.mem_side::system.mem_ctrl.port       959488                       # Cumulative packet size per connected master and slave (bytes)
system.membus.pkt_size_system.l2cache.mem_side::total       959488                       # Cumulative packet size per connected master and slave (bytes)
system.membus.pkt_size::total                  959488                       # Cumulative packet size per connected master and slave (bytes)
system.membus.snoops                                0                       # Total snoops (count)
system.membus.snoopTraffic                          0                       # Total snoop traffic (bytes)
system.membus.snoop_fanout::samples             13650                       # Request fanout histogram
system.membus.snoop_fanout::mean                    0                       # Request fanout histogram
system.membus.snoop_fanout::stdev                   0                       # Request fanout histogram
system.membus.snoop_fanout::underflows              0      0.00%      0.00% # Request fanout histogram
system.membus.snoop_fanout::0                   13650    100.00%    100.00% # Request fanout histogram
system.membus.snoop_fanout::1                       0      0.00%    100.00% # Request fanout histogram
system.membus.snoop_fanout::overflows               0      0.00%    100.00% # Request fanout histogram
system.membus.snoop_fanout::min_value               0                       # Request fanout histogram
system.membus.snoop_fanout::max_value               0                       # Request fanout histogram
system.membus.snoop_fanout::total               13650                       # Request fanout histogram
system.membus.reqLayer2.occupancy            11446629                       # Layer occupancy (ticks)
system.membus.reqLayer2.utilization               1.0                       # Layer utilization (%)
system.membus.respLayer0.occupancy           29635271                       # Layer occupancy (ticks)
system.membus.respLayer0.utilization              2.5                       # Layer utilization (%)
system.l2bus.pwrStateResidencyTicks::UNDEFINED   1182113200                       # Cumulative time (in ticks) in various power states
system.l2bus.trans_dist::ReadResp               17609                       # Transaction distribution
system.l2bus.trans_dist::WritebackDirty          4142                       # Transaction distribution
system.l2bus.trans_dist::CleanEvict             23996                       # Transaction distribution
system.l2bus.trans_dist::HardPFReq                975                       # Transaction distribution
system.l2bus.trans_dist::UpgradeReq                 1                       # Transaction distribution
system.l2bus.trans_dist::UpgradeResp                1                       # Transaction distribution
system.l2bus.trans_dist::ReadExReq               2200                       # Transaction distribution
system.l2bus.trans_dist::ReadExResp              2200                       # Transaction distribution
system.l2bus.trans_dist::ReadSharedReq          17609                       # Transaction distribution
system.l2bus.pkt_count_system.cpu.icache.mem_side::system.l2cache.cpu_side         8311                       # Packet count per connected master and slave (bytes)
system.l2bus.pkt_count_system.cpu.dcache.mem_side::system.l2cache.cpu_side        49834                       # Packet count per connected master and slave (bytes)
system.l2bus.pkt_count::total                   58145                       # Packet count per connected master and slave (bytes)
system.l2bus.pkt_size_system.cpu.icache.mem_side::system.l2cache.cpu_side       182656                       # Cumulative packet size per connected master and slave (bytes)
system.l2bus.pkt_size_system.cpu.dcache.mem_side::system.l2cache.cpu_side      1264128                       # Cumulative packet size per connected master and slave (bytes)
system.l2bus.pkt_size::total                  1446784                       # Cumulative packet size per connected master and slave (bytes)
system.l2bus.snoops                             10588                       # Total snoops (count)
system.l2bus.snoopTraffic                       86080                       # Total snoop traffic (bytes)
system.l2bus.snoop_fanout::samples              30395                       # Request fanout histogram
system.l2bus.snoop_fanout::mean              0.014805                       # Request fanout histogram
system.l2bus.snoop_fanout::stdev             0.120774                       # Request fanout histogram
system.l2bus.snoop_fanout::underflows               0      0.00%      0.00% # Request fanout histogram
system.l2bus.snoop_fanout::0                    29945     98.52%     98.52% # Request fanout histogram
system.l2bus.snoop_fanout::1                      450      1.48%    100.00% # Request fanout histogram
system.l2bus.snoop_fanout::2                        0      0.00%    100.00% # Request fanout histogram
system.l2bus.snoop_fanout::overflows                0      0.00%    100.00% # Request fanout histogram
system.l2bus.snoop_fanout::min_value                0                       # Request fanout histogram
system.l2bus.snoop_fanout::max_value                1                       # Request fanout histogram
system.l2bus.snoop_fanout::total                30395                       # Request fanout histogram
system.l2bus.respLayer1.occupancy            20343199                       # Layer occupancy (ticks)
system.l2bus.respLayer1.utilization               1.7                       # Layer utilization (%)
system.l2bus.reqLayer0.occupancy             19023411                       # Layer occupancy (ticks)
system.l2bus.reqLayer0.utilization                1.6                       # Layer utilization (%)
system.l2bus.respLayer0.occupancy             3428799                       # Layer occupancy (ticks)
system.l2bus.respLayer0.utilization               0.3                       # Layer utilization (%)
system.clk_domain.clock                           400                       # Clock period in ticks
system.clk_domain.voltage_domain.voltage            1                       # Voltage in Volts
system.cpu.pwrStateResidencyTicks::ON      1182113200                       # Cumulative time (in ticks) in various power states
system.cpu.icache.pwrStateResidencyTicks::UNDEFINED   1182113200                       # Cumulative time (in ticks) in various power states
system.cpu.icache.demand_hits::.cpu.inst       287513                       # number of demand (read+write) hits
system.cpu.icache.demand_hits::total           287513                       # number of demand (read+write) hits
system.cpu.icache.overall_hits::.cpu.inst       287513                       # number of overall hits
system.cpu.icache.overall_hits::total          287513                       # number of overall hits
system.cpu.icache.demand_misses::.cpu.inst         3546                       # number of demand (read+write) misses
system.cpu.icache.demand_misses::total           3546                       # number of demand (read+write) misses
system.cpu.icache.overall_misses::.cpu.inst         3546                       # number of overall misses
system.cpu.icache.overall_misses::total          3546                       # number of overall misses
system.cpu.icache.demand_miss_latency::.cpu.inst    176874400                       # number of demand (read+write) miss cycles
system.cpu.icache.demand_miss_latency::total    176874400                       # number of demand (read+write) miss cycles
system.cpu.icache.overall_miss_latency::.cpu.inst    176874400                       # number of overall miss cycles
system.cpu.icache.overall_miss_latency::total    176874400                       # number of overall miss cycles
system.cpu.icache.demand_accesses::.cpu.inst       291059                       # number of demand (read+write) accesses
system.cpu.icache.demand_accesses::total       291059                       # number of demand (read+write) accesses
system.cpu.icache.overall_accesses::.cpu.inst       291059                       # number of overall (read+write) accesses
system.cpu.icache.overall_accesses::total       291059                       # number of overall (read+write) accesses
system.cpu.icache.demand_miss_rate::.cpu.inst     0.012183                       # miss rate for demand accesses
system.cpu.icache.demand_miss_rate::total     0.012183                       # miss rate for demand accesses
system.cpu.icache.overall_miss_rate::.cpu.inst     0.012183                       # miss rate for overall accesses
system.cpu.icache.overall_miss_rate::total     0.012183                       # miss rate for overall accesses
system.cpu.icache.demand_avg_miss_latency::.cpu.inst 49879.977439                       # average overall miss latency
system.cpu.icache.demand_avg_miss_latency::total 49879.977439                       # average overall miss latency
system.cpu.icache.overall_avg_miss_latency::.cpu.inst 49879.977439                       # average overall miss latency
system.cpu.icache.overall_avg_miss_latency::total 49879.977439                       # average overall miss latency
system.cpu.icache.blocked_cycles::no_mshrs          184                       # number of cycles access was blocked
system.cpu.icache.blocked_cycles::no_targets            0                       # number of cycles access was blocked
system.cpu.icache.blocked::no_mshrs                 4                       # number of cycles access was blocked
system.cpu.icache.blocked::no_targets               0                       # number of cycles access was blocked
system.cpu.icache.avg_blocked_cycles::no_mshrs           46                       # average number of cycles each access was blocked
system.cpu.icache.avg_blocked_cycles::no_targets          nan                       # average number of cycles each access was blocked
system.cpu.icache.demand_mshr_hits::.cpu.inst          689                       # number of demand (read+write) MSHR hits
system.cpu.icache.demand_mshr_hits::total          689                       # number of demand (read+write) MSHR hits
system.cpu.icache.overall_mshr_hits::.cpu.inst          689                       # number of overall MSHR hits
system.cpu.icache.overall_mshr_hits::total          689                       # number of overall MSHR hits
system.cpu.icache.demand_mshr_misses::.cpu.inst         2857                       # number of demand (read+write) MSHR misses
system.cpu.icache.demand_mshr_misses::total         2857                       # number of demand (read+write) MSHR misses
system.cpu.icache.overall_mshr_misses::.cpu.inst         2857                       # number of overall MSHR misses
system.cpu.icache.overall_mshr_misses::total         2857                       # number of overall MSHR misses
system.cpu.icache.demand_mshr_miss_latency::.cpu.inst    143834400                       # number of demand (read+write) MSHR miss cycles
system.cpu.icache.demand_mshr_miss_latency::total    143834400                       # number of demand (read+write) MSHR miss cycles
system.cpu.icache.overall_mshr_miss_latency::.cpu.inst    143834400                       # number of overall MSHR miss cycles
system.cpu.icache.overall_mshr_miss_latency::total    143834400                       # number of overall MSHR miss cycles
system.cpu.icache.demand_mshr_miss_rate::.cpu.inst     0.009816                       # mshr miss rate for demand accesses
system.cpu.icache.demand_mshr_miss_rate::total     0.009816                       # mshr miss rate for demand accesses
system.cpu.icache.overall_mshr_miss_rate::.cpu.inst     0.009816                       # mshr miss rate for overall accesses
system.cpu.icache.overall_mshr_miss_rate::total     0.009816                       # mshr miss rate for overall accesses
system.cpu.icache.demand_avg_mshr_miss_latency::.cpu.inst 50344.557228                       # average overall mshr miss latency
system.cpu.icache.demand_avg_mshr_miss_latency::total 50344.557228                       # average overall mshr miss latency
system.cpu.icache.overall_avg_mshr_miss_latency::.cpu.inst 50344.557228                       # average overall mshr miss latency
system.cpu.icache.overall_avg_mshr_miss_latency::total 50344.557228                       # average overall mshr miss latency
system.cpu.icache.replacements                   2600                       # number of replacements
system.cpu.icache.ReadReq_hits::.cpu.inst       287513                       # number of ReadReq hits
system.cpu.icache.ReadReq_hits::total          287513                       # number of ReadReq hits
system.cpu.icache.ReadReq_misses::.cpu.inst         3546                       # number of ReadReq misses
system.cpu.icache.ReadReq_misses::total          3546                       # number of ReadReq misses
system.cpu.icache.ReadReq_miss_latency::.cpu.inst    176874400                       # number of ReadReq miss cycles
system.cpu.icache.ReadReq_miss_latency::total    176874400                       # number of ReadReq miss cycles
system.cpu.icache.ReadReq_accesses::.cpu.inst       291059                       # number of ReadReq accesses(hits+misses)
system.cpu.icache.ReadReq_accesses::total       291059                       # number of ReadReq accesses(hits+misses)
system.cpu.icache.ReadReq_miss_rate::.cpu.inst     0.012183                       # miss rate for ReadReq accesses
system.cpu.icache.ReadReq_miss_rate::total     0.012183                       # miss rate for ReadReq accesses
system.cpu.icache.ReadReq_avg_miss_latency::.cpu.inst 49879.977439                       # average ReadReq miss latency
system.cpu.icache.ReadReq_avg_miss_latency::total 49879.977439                       # average ReadReq miss latency
system.cpu.icache.ReadReq_mshr_hits::.cpu.inst          689                       # number of ReadReq MSHR hits
system.cpu.icache.ReadReq_mshr_hits::total          689                       # number of ReadReq MSHR hits
system.cpu.icache.ReadReq_mshr_misses::.cpu.inst         2857                       # number of ReadReq MSHR misses
system.cpu.icache.ReadReq_mshr_misses::total         2857                       # number of ReadReq MSHR misses
system.cpu.icache.ReadReq_mshr_miss_latency::.cpu.inst    143834400                       # number of ReadReq MSHR miss cycles
system.cpu.icache.ReadReq_mshr_miss_latency::total    143834400                       # number of ReadReq MSHR miss cycles
system.cpu.icache.ReadReq_mshr_miss_rate::.cpu.inst     0.009816                       # mshr miss rate for ReadReq accesses
system.cpu.icache.ReadReq_mshr_miss_rate::total     0.009816                       # mshr miss rate for ReadReq accesses
system.cpu.icache.ReadReq_avg_mshr_miss_latency::.cpu.inst 50344.557228                       # average ReadReq mshr miss latency
system.cpu.icache.ReadReq_avg_mshr_miss_latency::total 50344.557228                       # average ReadReq mshr miss latency
system.cpu.icache.prefetcher.pwrStateResidencyTicks::UNDEFINED   1182113200                       # Cumulative time (in ticks) in various power states
system.cpu.icache.tags.pwrStateResidencyTicks::UNDEFINED   1182113200                       # Cumulative time (in ticks) in various power states
system.cpu.icache.tags.tagsinuse           253.649565                       # Cycle average of tags in use
system.cpu.icache.tags.total_refs              245061                       # Total number of references to valid blocks.
system.cpu.icache.tags.sampled_refs              2601                       # Sample count of references to valid blocks.
system.cpu.icache.tags.avg_refs             94.217993                       # Average number of references to valid blocks.
system.cpu.icache.tags.warmup_cycle             66400                       # Cycle when the warmup percentage was hit.
system.cpu.icache.tags.occ_blocks::.cpu.inst   253.649565                       # Average occupied blocks per requestor
system.cpu.icache.tags.occ_percent::.cpu.inst     0.990819                       # Average percentage of cache occupancy
system.cpu.icache.tags.occ_percent::total     0.990819                       # Average percentage of cache occupancy
system.cpu.icache.tags.occ_task_id_blocks::1024          256                       # Occupied blocks per task id
system.cpu.icache.tags.age_task_id_blocks_1024::0           94                       # Occupied blocks per task id
system.cpu.icache.tags.age_task_id_blocks_1024::1           36                       # Occupied blocks per task id
system.cpu.icache.tags.age_task_id_blocks_1024::2          122                       # Occupied blocks per task id
system.cpu.icache.tags.age_task_id_blocks_1024::3            4                       # Occupied blocks per task id
system.cpu.icache.tags.occ_task_id_percent::1024            1                       # Percentage of cache occupancy per task id
system.cpu.icache.tags.tag_accesses            584975                       # Number of tag accesses
system.cpu.icache.tags.data_accesses           584975                       # Number of data accesses
system.cpu.dtb.walker.pwrStateResidencyTicks::UNDEFINED   1182113200                       # Cumulative time (in ticks) in various power states
system.cpu.interrupts.clk_domain.clock           6400                       # Clock period in ticks
system.cpu.itb.walker.pwrStateResidencyTicks::UNDEFINED   1182113200                       # Cumulative time (in ticks) in various power states
system.cpu.dcache.pwrStateResidencyTicks::UNDEFINED   1182113200                       # Cumulative time (in ticks) in various power states
system.cpu.dcache.demand_hits::.cpu.data       773292                       # number of demand (read+write) hits
system.cpu.dcache.demand_hits::total           773292                       # number of demand (read+write) hits
system.cpu.dcache.overall_hits::.cpu.data       773292                       # number of overall hits
system.cpu.dcache.overall_hits::total          773292                       # number of overall hits
system.cpu.dcache.demand_misses::.cpu.data        34596                       # number of demand (read+write) misses
system.cpu.dcache.demand_misses::total          34596                       # number of demand (read+write) misses
system.cpu.dcache.overall_misses::.cpu.data        34596                       # number of overall misses
system.cpu.dcache.overall_misses::total         34596                       # number of overall misses
system.cpu.dcache.demand_miss_latency::.cpu.data   1682604400                       # number of demand (read+write) miss cycles
system.cpu.dcache.demand_miss_latency::total   1682604400                       # number of demand (read+write) miss cycles
system.cpu.dcache.overall_miss_latency::.cpu.data   1682604400                       # number of overall miss cycles
system.cpu.dcache.overall_miss_latency::total   1682604400                       # number of overall miss cycles
system.cpu.dcache.demand_accesses::.cpu.data       807888                       # number of demand (read+write) accesses
system.cpu.dcache.demand_accesses::total       807888                       # number of demand (read+write) accesses
system.cpu.dcache.overall_accesses::.cpu.data       807888                       # number of overall (read+write) accesses
system.cpu.dcache.overall_accesses::total       807888                       # number of overall (read+write) accesses
system.cpu.dcache.demand_miss_rate::.cpu.data     0.042823                       # miss rate for demand accesses
system.cpu.dcache.demand_miss_rate::total     0.042823                       # miss rate for demand accesses
system.cpu.dcache.overall_miss_rate::.cpu.data     0.042823                       # miss rate for overall accesses
system.cpu.dcache.overall_miss_rate::total     0.042823                       # miss rate for overall accesses
system.cpu.dcache.demand_avg_miss_latency::.cpu.data 48635.807608                       # average overall miss latency
system.cpu.dcache.demand_avg_miss_latency::total 48635.807608                       # average overall miss latency
system.cpu.dcache.overall_avg_miss_latency::.cpu.data 48635.807608                       # average overall miss latency
system.cpu.dcache.overall_avg_miss_latency::total 48635.807608                       # average overall miss latency
system.cpu.dcache.blocked_cycles::no_mshrs        29135                       # number of cycles access was blocked
system.cpu.dcache.blocked_cycles::no_targets          138                       # number of cycles access was blocked
system.cpu.dcache.blocked::no_mshrs               739                       # number of cycles access was blocked
system.cpu.dcache.blocked::no_targets               1                       # number of cycles access was blocked
system.cpu.dcache.avg_blocked_cycles::no_mshrs    39.424899                       # average number of cycles each access was blocked
system.cpu.dcache.avg_blocked_cycles::no_targets          138                       # average number of cycles each access was blocked
system.cpu.dcache.unused_prefetches              1761                       # number of HardPF blocks evicted w/o reference
system.cpu.dcache.writebacks::.writebacks         2800                       # number of writebacks
system.cpu.dcache.writebacks::total              2800                       # number of writebacks
system.cpu.dcache.demand_mshr_hits::.cpu.data        22035                       # number of demand (read+write) MSHR hits
system.cpu.dcache.demand_mshr_hits::total        22035                       # number of demand (read+write) MSHR hits
system.cpu.dcache.overall_mshr_hits::.cpu.data        22035                       # number of overall MSHR hits
system.cpu.dcache.overall_mshr_hits::total        22035                       # number of overall MSHR hits
system.cpu.dcache.demand_mshr_misses::.cpu.data        12561                       # number of demand (read+write) MSHR misses
system.cpu.dcache.demand_mshr_misses::total        12561                       # number of demand (read+write) MSHR misses
system.cpu.dcache.overall_mshr_misses::.cpu.data        12561                       # number of overall MSHR misses
system.cpu.dcache.overall_mshr_misses::.cpu.dcache.prefetcher         4392                       # number of overall MSHR misses
system.cpu.dcache.overall_mshr_misses::total        16953                       # number of overall MSHR misses
system.cpu.dcache.demand_mshr_miss_latency::.cpu.data    581405600                       # number of demand (read+write) MSHR miss cycles
system.cpu.dcache.demand_mshr_miss_latency::total    581405600                       # number of demand (read+write) MSHR miss cycles
system.cpu.dcache.overall_mshr_miss_latency::.cpu.data    581405600                       # number of overall MSHR miss cycles
system.cpu.dcache.overall_mshr_miss_latency::.cpu.dcache.prefetcher    251226088                       # number of overall MSHR miss cycles
system.cpu.dcache.overall_mshr_miss_latency::total    832631688                       # number of overall MSHR miss cycles
system.cpu.dcache.demand_mshr_miss_rate::.cpu.data     0.015548                       # mshr miss rate for demand accesses
system.cpu.dcache.demand_mshr_miss_rate::total     0.015548                       # mshr miss rate for demand accesses
system.cpu.dcache.overall_mshr_miss_rate::.cpu.data     0.015548                       # mshr miss rate for overall accesses
system.cpu.dcache.overall_mshr_miss_rate::.cpu.dcache.prefetcher          inf                       # mshr miss rate for overall accesses
system.cpu.dcache.overall_mshr_miss_rate::total     0.020984                       # mshr miss rate for overall accesses
system.cpu.dcache.demand_avg_mshr_miss_latency::.cpu.data 46286.569541                       # average overall mshr miss latency
system.cpu.dcache.demand_avg_mshr_miss_latency::total 46286.569541                       # average overall mshr miss latency
system.cpu.dcache.overall_avg_mshr_miss_latency::.cpu.data 46286.569541                       # average overall mshr miss latency
system.cpu.dcache.overall_avg_mshr_miss_latency::.cpu.dcache.prefetcher 57200.839709                       # average overall mshr miss latency
system.cpu.dcache.overall_avg_mshr_miss_latency::total 49114.120687                       # average overall mshr miss latency
system.cpu.dcache.replacements                  15928                       # number of replacements
system.cpu.dcache.ReadReq_hits::.cpu.data       562268                       # number of ReadReq hits
system.cpu.dcache.ReadReq_hits::total          562268                       # number of ReadReq hits
system.cpu.dcache.ReadReq_misses::.cpu.data        32361                       # number of ReadReq misses
system.cpu.dcache.ReadReq_misses::total         32361                       # number of ReadReq misses
system.cpu.dcache.ReadReq_miss_latency::.cpu.data   1570693200                       # number of ReadReq miss cycles
system.cpu.dcache.ReadReq_miss_latency::total   1570693200                       # number of ReadReq miss cycles
system.cpu.dcache.ReadReq_accesses::.cpu.data       594629                       # number of ReadReq accesses(hits+misses)
system.cpu.dcache.ReadReq_accesses::total       594629                       # number of ReadReq accesses(hits+misses)
system.cpu.dcache.ReadReq_miss_rate::.cpu.data     0.054422                       # miss rate for ReadReq accesses
system.cpu.dcache.ReadReq_miss_rate::total     0.054422                       # miss rate for ReadReq accesses
system.cpu.dcache.ReadReq_avg_miss_latency::.cpu.data 48536.608881                       # average ReadReq miss latency
system.cpu.dcache.ReadReq_avg_miss_latency::total 48536.608881                       # average ReadReq miss latency
system.cpu.dcache.ReadReq_mshr_hits::.cpu.data        22001                       # number of ReadReq MSHR hits
system.cpu.dcache.ReadReq_mshr_hits::total        22001                       # number of ReadReq MSHR hits
system.cpu.dcache.ReadReq_mshr_misses::.cpu.data        10360                       # number of ReadReq MSHR misses
system.cpu.dcache.ReadReq_mshr_misses::total        10360                       # number of ReadReq MSHR misses
system.cpu.dcache.ReadReq_mshr_miss_latency::.cpu.data    472436400                       # number of ReadReq MSHR miss cycles
system.cpu.dcache.ReadReq_mshr_miss_latency::total    472436400                       # number of ReadReq MSHR miss cycles
system.cpu.dcache.ReadReq_mshr_miss_rate::.cpu.data     0.017423                       # mshr miss rate for ReadReq accesses
system.cpu.dcache.ReadReq_mshr_miss_rate::total     0.017423                       # mshr miss rate for ReadReq accesses
system.cpu.dcache.ReadReq_avg_mshr_miss_latency::.cpu.data 45601.969112                       # average ReadReq mshr miss latency
system.cpu.dcache.ReadReq_avg_mshr_miss_latency::total 45601.969112                       # average ReadReq mshr miss latency
system.cpu.dcache.WriteReq_hits::.cpu.data       211024                       # number of WriteReq hits
system.cpu.dcache.WriteReq_hits::total         211024                       # number of WriteReq hits
system.cpu.dcache.WriteReq_misses::.cpu.data         2235                       # number of WriteReq misses
system.cpu.dcache.WriteReq_misses::total         2235                       # number of WriteReq misses
system.cpu.dcache.WriteReq_miss_latency::.cpu.data    111911200                       # number of WriteReq miss cycles
system.cpu.dcache.WriteReq_miss_latency::total    111911200                       # number of WriteReq miss cycles
system.cpu.dcache.WriteReq_accesses::.cpu.data       213259                       # number of WriteReq accesses(hits+misses)
system.cpu.dcache.WriteReq_accesses::total       213259                       # number of WriteReq accesses(hits+misses)
system.cpu.dcache.WriteReq_miss_rate::.cpu.data     0.010480                       # miss rate for WriteReq accesses
system.cpu.dcache.WriteReq_miss_rate::total     0.010480                       # miss rate for WriteReq accesses
system.cpu.dcache.WriteReq_avg_miss_latency::.cpu.data 50072.125280                       # average WriteReq miss latency
system.cpu.dcache.WriteReq_avg_miss_latency::total 50072.125280                       # average WriteReq miss latency
system.cpu.dcache.WriteReq_mshr_hits::.cpu.data           34                       # number of WriteReq MSHR hits
system.cpu.dcache.WriteReq_mshr_hits::total           34                       # number of WriteReq MSHR hits
system.cpu.dcache.WriteReq_mshr_misses::.cpu.data         2201                       # number of WriteReq MSHR misses
[...]
system.l2cache.demand_mshr_misses::.cpu.data          167                       # number of demand (read+write) MSHR misses
system.l2cache.demand_mshr_misses::.cpu.dcache.prefetcher           43                       # number of demand (read+write) MSHR misses
system.l2cache.demand_mshr_misses::total          471                       # number of demand (read+write) MSHR misses
system.l2cache.overall_mshr_misses::.cpu.inst          261                       # number of overall MSHR misses
system.l2cache.overall_mshr_misses::.cpu.data          167                       # number of overall MSHR misses
system.l2cache.overall_mshr_misses::.cpu.dcache.prefetcher           43                       # number of overall MSHR misses
system.l2cache.overall_mshr_misses::total          471                       # number of overall MSHR misses
system.l2cache.demand_mshr_miss_latency::.cpu.inst     15128000                       # number of demand (read+write) MSHR miss cycles
system.l2cache.demand_mshr_miss_latency::.cpu.data      9920800                       # number of demand (read+write) MSHR miss cycles
system.l2cache.demand_mshr_miss_latency::.cpu.dcache.prefetcher      2728756                       # number of demand (read+write) MSHR miss cycles
system.l2cache.demand_mshr_miss_latency::total     27777556                       # number of demand (read+write) MSHR miss cycles
system.l2cache.overall_mshr_miss_latency::.cpu.inst     15128000                       # number of overall MSHR miss cycles
system.l2cache.overall_mshr_miss_latency::.cpu.data      9920800                       # number of overall MSHR miss cycles
system.l2cache.overall_mshr_miss_latency::.cpu.dcache.prefetcher      2728756                       # number of overall MSHR miss cycles
system.l2cache.overall_mshr_miss_latency::total     27777556                       # number of overall MSHR miss cycles
system.l2cache.demand_mshr_miss_rate::.cpu.inst     0.483333                       # mshr miss rate for demand accesses
system.l2cache.demand_mshr_miss_rate::.cpu.data     0.482659                       # mshr miss rate for demand accesses
system.l2cache.demand_mshr_miss_rate::.cpu.dcache.prefetcher     0.843137                       # mshr miss rate for demand accesses
system.l2cache.demand_mshr_miss_rate::total     0.502668                       # mshr miss rate for demand accesses
system.l2cache.overall_mshr_miss_rate::.cpu.inst     0.483333                       # mshr miss rate for overall accesses
system.l2cache.overall_mshr_miss_rate::.cpu.data     0.482659                       # mshr miss rate for overall accesses
system.l2cache.overall_mshr_miss_rate::.cpu.dcache.prefetcher     0.843137                       # mshr miss rate for overall accesses
system.l2cache.overall_mshr_miss_rate::total     0.502668                       # mshr miss rate for overall accesses
system.l2cache.demand_avg_mshr_miss_latency::.cpu.inst 57961.685824                       # average overall mshr miss latency
system.l2cache.demand_avg_mshr_miss_latency::.cpu.data 59405.988024                       # average overall mshr miss latency
system.l2cache.demand_avg_mshr_miss_latency::.cpu.dcache.prefetcher 63459.441860                       # average overall mshr miss latency
system.l2cache.demand_avg_mshr_miss_latency::total 58975.702760                       # average overall mshr miss latency
system.l2cache.overall_avg_mshr_miss_latency::.cpu.inst 57961.685824                       # average overall mshr miss latency
system.l2cache.overall_avg_mshr_miss_latency::.cpu.data 59405.988024                       # average overall mshr miss latency
system.l2cache.overall_avg_mshr_miss_latency::.cpu.dcache.prefetcher 63459.441860                       # average overall mshr miss latency
system.l2cache.overall_avg_mshr_miss_latency::total 58975.702760                       # average overall mshr miss latency
system.l2cache.replacements                       480                       # number of replacements
system.l2cache.WritebackDirty_hits::.writebacks          159                       # number of WritebackDirty hits
system.l2cache.WritebackDirty_hits::total          159                       # number of WritebackDirty hits
system.l2cache.WritebackDirty_accesses::.writebacks          159                       # number of WritebackDirty accesses(hits+misses)
system.l2cache.WritebackDirty_accesses::total          159                       # number of WritebackDirty accesses(hits+misses)
system.l2cache.CleanEvict_mshr_misses::.writebacks           12                       # number of CleanEvict MSHR misses
system.l2cache.CleanEvict_mshr_misses::total           12                       # number of CleanEvict MSHR misses
system.l2cache.CleanEvict_mshr_miss_rate::.writebacks          inf                       # mshr miss rate for CleanEvict accesses
system.l2cache.CleanEvict_mshr_miss_rate::total          inf                       # mshr miss rate for CleanEvict accesses
system.l2cache.ReadExReq_hits::.cpu.data           45                       # number of ReadExReq hits
system.l2cache.ReadExReq_hits::total               45                       # number of ReadExReq hits
system.l2cache.ReadExReq_misses::.cpu.data           49                       # number of ReadExReq misses
system.l2cache.ReadExReq_misses::total             49                       # number of ReadExReq misses
system.l2cache.ReadExReq_miss_latency::.cpu.data      3378400                       # number of ReadExReq miss cycles
system.l2cache.ReadExReq_miss_latency::total      3378400                       # number of ReadExReq miss cycles
system.l2cache.ReadExReq_accesses::.cpu.data           94                       # number of ReadExReq accesses(hits+misses)
system.l2cache.ReadExReq_accesses::total           94                       # number of ReadExReq accesses(hits+misses)
system.l2cache.ReadExReq_miss_rate::.cpu.data     0.521277                       # miss rate for ReadExReq accesses
system.l2cache.ReadExReq_miss_rate::total     0.521277                       # miss rate for ReadExReq accesses
system.l2cache.ReadExReq_avg_miss_latency::.cpu.data 68946.938776                       # average ReadExReq miss latency
system.l2cache.ReadExReq_avg_miss_latency::total 68946.938776                       # average ReadExReq miss latency
system.l2cache.ReadExReq_mshr_misses::.cpu.data           49                       # number of ReadExReq MSHR misses
system.l2cache.ReadExReq_mshr_misses::total           49                       # number of ReadExReq MSHR misses
system.l2cache.ReadExReq_mshr_miss_latency::.cpu.data      2986400                       # number of ReadExReq MSHR miss cycles
system.l2cache.ReadExReq_mshr_miss_latency::total      2986400                       # number of ReadExReq MSHR miss cycles
system.l2cache.ReadExReq_mshr_miss_rate::.cpu.data     0.521277                       # mshr miss rate for ReadExReq accesses
system.l2cache.ReadExReq_mshr_miss_rate::total     0.521277                       # mshr miss rate for ReadExReq accesses
system.l2cache.ReadExReq_avg_mshr_miss_latency::.cpu.data 60946.938776                       # average ReadExReq mshr miss latency
system.l2cache.ReadExReq_avg_mshr_miss_latency::total 60946.938776                       # average ReadExReq mshr miss latency
system.l2cache.ReadSharedReq_hits::.cpu.inst          279                       # number of ReadSharedReq hits
system.l2cache.ReadSharedReq_hits::.cpu.data          134                       # number of ReadSharedReq hits
system.l2cache.ReadSharedReq_hits::.cpu.dcache.prefetcher            8                       # number of ReadSharedReq hits
system.l2cache.ReadSharedReq_hits::total          421                       # number of ReadSharedReq hits
system.l2cache.ReadSharedReq_misses::.cpu.inst          261                       # number of ReadSharedReq misses
system.l2cache.ReadSharedReq_misses::.cpu.data          118                       # number of ReadSharedReq misses
system.l2cache.ReadSharedReq_misses::.cpu.dcache.prefetcher           43                       # number of ReadSharedReq misses
system.l2cache.ReadSharedReq_misses::total          422                       # number of ReadSharedReq misses
system.l2cache.ReadSharedReq_miss_latency::.cpu.inst     17208000                       # number of ReadSharedReq miss cycles
system.l2cache.ReadSharedReq_miss_latency::.cpu.data      7878400                       # number of ReadSharedReq miss cycles
system.l2cache.ReadSharedReq_miss_latency::.cpu.dcache.prefetcher      3072756                       # number of ReadSharedReq miss cycles
system.l2cache.ReadSharedReq_miss_latency::total     28159156                       # number of ReadSharedReq miss cycles
system.l2cache.ReadSharedReq_accesses::.cpu.inst          540                       # number of ReadSharedReq accesses(hits+misses)
system.l2cache.ReadSharedReq_accesses::.cpu.data          252                       # number of ReadSharedReq accesses(hits+misses)
system.l2cache.ReadSharedReq_accesses::.cpu.dcache.prefetcher           51                       # number of ReadSharedReq accesses(hits+misses)
system.l2cache.ReadSharedReq_accesses::total          843                       # number of ReadSharedReq accesses(hits+misses)
system.l2cache.ReadSharedReq_miss_rate::.cpu.inst     0.483333                       # miss rate for ReadSharedReq accesses
system.l2cache.ReadSharedReq_miss_rate::.cpu.data     0.468254                       # miss rate for ReadSharedReq accesses
system.l2cache.ReadSharedReq_miss_rate::.cpu.dcache.prefetcher     0.843137                       # miss rate for ReadSharedReq accesses
system.l2cache.ReadSharedReq_miss_rate::total     0.500593                       # miss rate for ReadSharedReq accesses
system.l2cache.ReadSharedReq_avg_miss_latency::.cpu.inst 65931.034483                       # average ReadSharedReq miss latency
system.l2cache.ReadSharedReq_avg_miss_latency::.cpu.data 66766.101695                       # average ReadSharedReq miss latency
system.l2cache.ReadSharedReq_avg_miss_latency::.cpu.dcache.prefetcher 71459.441860                       # average ReadSharedReq miss latency
system.l2cache.ReadSharedReq_avg_miss_latency::total 66727.857820                       # average ReadSharedReq miss latency
system.l2cache.ReadSharedReq_mshr_misses::.cpu.inst          261                       # number of ReadSharedReq MSHR misses
system.l2cache.ReadSharedReq_mshr_misses::.cpu.data          118                       # number of ReadSharedReq MSHR misses
system.l2cache.ReadSharedReq_mshr_misses::.cpu.dcache.prefetcher           43                       # number of ReadSharedReq MSHR misses
system.l2cache.ReadSharedReq_mshr_misses::total          422                       # number of ReadSharedReq MSHR misses
system.l2cache.ReadSharedReq_mshr_miss_latency::.cpu.inst     15128000                       # number of ReadSharedReq MSHR miss cycles
system.l2cache.ReadSharedReq_mshr_miss_latency::.cpu.data      6934400                       # number of ReadSharedReq MSHR miss cycles
system.l2cache.ReadSharedReq_mshr_miss_latency::.cpu.dcache.prefetcher      2728756                       # number of ReadSharedReq MSHR miss cycles
system.l2cache.ReadSharedReq_mshr_miss_latency::total     24791156                       # number of ReadSharedReq MSHR miss cycles
system.l2cache.ReadSharedReq_mshr_miss_rate::.cpu.inst     0.483333                       # mshr miss rate for ReadSharedReq accesses
system.l2cache.ReadSharedReq_mshr_miss_rate::.cpu.data     0.468254                       # mshr miss rate for ReadSharedReq accesses
system.l2cache.ReadSharedReq_mshr_miss_rate::.cpu.dcache.prefetcher     0.843137                       # mshr miss rate for ReadSharedReq accesses
system.l2cache.ReadSharedReq_mshr_miss_rate::total     0.500593                       # mshr miss rate for ReadSharedReq accesses
system.l2cache.ReadSharedReq_avg_mshr_miss_latency::.cpu.inst 57961.685824                       # average ReadSharedReq mshr miss latency
system.l2cache.ReadSharedReq_avg_mshr_miss_latency::.cpu.data 58766.101695                       # average ReadSharedReq mshr miss latency
system.l2cache.ReadSharedReq_avg_mshr_miss_latency::.cpu.dcache.prefetcher 63459.441860                       # average ReadSharedReq mshr miss latency
system.l2cache.ReadSharedReq_avg_mshr_miss_latency::total 58746.815166                       # average ReadSharedReq mshr miss latency
system.l2cache.prefetcher.pwrStateResidencyTicks::UNDEFINED    121080400                       # Cumulative time (in ticks) in various power states
system.l2cache.tags.pwrStateResidencyTicks::UNDEFINED    121080400                       # Cumulative time (in ticks) in various power states
system.l2cache.tags.tagsinuse                    4096                       # Cycle average of tags in use
system.l2cache.tags.total_refs                  13934                       # Total number of references to valid blocks.
system.l2cache.tags.sampled_refs                 4576                       # Sample count of references to valid blocks.
system.l2cache.tags.avg_refs                 3.045017                       # Average number of references to valid blocks.
system.l2cache.tags.warmup_cycle                    0                       # Cycle when the warmup percentage was hit.
system.l2cache.tags.occ_blocks::.writebacks    38.750615                       # Average occupied blocks per requestor
system.l2cache.tags.occ_blocks::.cpu.inst  1106.605704                       # Average occupied blocks per requestor
system.l2cache.tags.occ_blocks::.cpu.data  1880.811751                       # Average occupied blocks per requestor
system.l2cache.tags.occ_blocks::.cpu.dcache.prefetcher   944.570420                       # Average occupied blocks per requestor
system.l2cache.tags.occ_blocks::.l2cache.prefetcher   125.261509                       # Average occupied blocks per requestor
system.l2cache.tags.occ_percent::.writebacks     0.009461                       # Average percentage of cache occupancy
system.l2cache.tags.occ_percent::.cpu.inst     0.270167                       # Average percentage of cache occupancy
system.l2cache.tags.occ_percent::.cpu.data     0.459183                       # Average percentage of cache occupancy
system.l2cache.tags.occ_percent::.cpu.dcache.prefetcher     0.230608                       # Average percentage of cache occupancy
system.l2cache.tags.occ_percent::.l2cache.prefetcher     0.030581                       # Average percentage of cache occupancy
system.l2cache.tags.occ_percent::total              1                       # Average percentage of cache occupancy
system.l2cache.tags.occ_task_id_blocks::1022          991                       # Occupied blocks per task id
system.l2cache.tags.occ_task_id_blocks::1024         3105                       # Occupied blocks per task id
system.l2cache.tags.age_task_id_blocks_1022::0            5                       # Occupied blocks per task id
system.l2cache.tags.age_task_id_blocks_1022::1            8                       # Occupied blocks per task id
system.l2cache.tags.age_task_id_blocks_1022::2          947                       # Occupied blocks per task id
system.l2cache.tags.age_task_id_blocks_1022::3           31                       # Occupied blocks per task id
system.l2cache.tags.age_task_id_blocks_1024::0          169                       # Occupied blocks per task id
system.l2cache.tags.age_task_id_blocks_1024::1          136                       # Occupied blocks per task id
system.l2cache.tags.age_task_id_blocks_1024::2         2594                       # Occupied blocks per task id
system.l2cache.tags.age_task_id_blocks_1024::3          206                       # Occupied blocks per task id
system.l2cache.tags.occ_task_id_percent::1022     0.241943                       # Percentage of cache occupancy per task id
system.l2cache.tags.occ_task_id_percent::1024     0.758057                       # Percentage of cache occupancy per task id
system.l2cache.tags.tag_accesses                15456                       # Number of tag accesses
system.l2cache.tags.data_accesses               15456                       # Number of data accesses
system.mem_ctrl.pwrStateResidencyTicks::UNDEFINED    121080400                       # Cumulative time (in ticks) in various power states
system.mem_ctrl.bytes_read::.cpu.inst           16640                       # Number of bytes read from this memory
system.mem_ctrl.bytes_read::.cpu.data           10688                       # Number of bytes read from this memory
system.mem_ctrl.bytes_read::.cpu.dcache.prefetcher         2752                       # Number of bytes read from this memory
system.mem_ctrl.bytes_read::total               30080                       # Number of bytes read from this memory
system.mem_ctrl.bytes_inst_read::.cpu.inst        16640                       # Number of instructions bytes read from this memory
system.mem_ctrl.bytes_inst_read::total          16640                       # Number of instructions bytes read from this memory
system.mem_ctrl.bytes_written::.writebacks         1984                       # Number of bytes written to this memory
system.mem_ctrl.bytes_written::total             1984                       # Number of bytes written to this memory
system.mem_ctrl.num_reads::.cpu.inst              260                       # Number of read requests responded to by this memory
system.mem_ctrl.num_reads::.cpu.data              167                       # Number of read requests responded to by this memory
system.mem_ctrl.num_reads::.cpu.dcache.prefetcher           43                       # Number of read requests responded to by this memory
system.mem_ctrl.num_reads::total                  470                       # Number of read requests responded to by this memory
system.mem_ctrl.num_writes::.writebacks            31                       # Number of write requests responded to by this memory
system.mem_ctrl.num_writes::total                  31                       # Number of write requests responded to by this memory
system.mem_ctrl.bw_read::.cpu.inst          137429344                       # Total read bandwidth from this memory (bytes/s)
system.mem_ctrl.bw_read::.cpu.data           88271925                       # Total read bandwidth from this memory (bytes/s)
system.mem_ctrl.bw_read::.cpu.dcache.prefetcher     22728699                       # Total read bandwidth from this memory (bytes/s)
system.mem_ctrl.bw_read::total              248429969                       # Total read bandwidth from this memory (bytes/s)
system.mem_ctrl.bw_inst_read::.cpu.inst     137429344                       # Instruction read bandwidth from this memory (bytes/s)
system.mem_ctrl.bw_inst_read::total         137429344                       # Instruction read bandwidth from this memory (bytes/s)
system.mem_ctrl.bw_write::.writebacks        16385806                       # Write bandwidth from this memory (bytes/s)
system.mem_ctrl.bw_write::total              16385806                       # Write bandwidth from this memory (bytes/s)
system.mem_ctrl.bw_total::.writebacks        16385806                       # Total bandwidth to/from this memory (bytes/s)
system.mem_ctrl.bw_total::.cpu.inst         137429344                       # Total bandwidth to/from this memory (bytes/s)
system.mem_ctrl.bw_total::.cpu.data          88271925                       # Total bandwidth to/from this memory (bytes/s)
system.mem_ctrl.bw_total::.cpu.dcache.prefetcher     22728699                       # Total bandwidth to/from this memory (bytes/s)
system.mem_ctrl.bw_total::total             264815775                       # Total bandwidth to/from this memory (bytes/s)

---------- End Simulation Statistics   ----------
