
---------- Begin Simulation Statistics ----------
final_tick                                 1272143200                       # Number of ticks from beginning of simulation (restored from checkpoints and never reset)
host_inst_rate                                 137469                       # Simulator instruction rate (inst/s)
host_mem_usage                                4404952                       # Number of bytes of host memory used
host_op_rate                                   239086                       # Simulator op (including micro ops) rate (op/s)
host_seconds                                    17.03                       # Real time elapsed on the host
host_tick_rate                               74695386                       # Simulator tick rate (ticks/s)
sim_freq                                 1000000000000                       # Frequency of simulated ticks
sim_insts                                     2341238                       # Number of instructions simulated
sim_ops                                       4071898                       # Number of ops (including micro ops) simulated
sim_seconds                                  0.001272                       # Number of seconds simulated
sim_ticks                                  1272143200                       # Number of ticks simulated
system.cpu.branchPred.BTBCorrect                    0                       # Number of correct BTB predictions (this stat may not work properly.
system.cpu.branchPred.BTBHitPct              0.000000                       # BTB Hit Percentage
system.cpu.branchPred.BTBHits                       0                       # Number of BTB hits
system.cpu.branchPred.BTBLookups               489015                       # Number of BTB lookups
system.cpu.branchPred.RASInCorrect                  8                       # Number of incorrect RAS predictions.
system.cpu.branchPred.condIncorrect             23614                       # Number of conditional branches incorrect
system.cpu.branchPred.condPredicted            513491                       # Number of conditional branches predicted
system.cpu.branchPred.indirectHits             275453                       # Number of indirect target hits.
system.cpu.branchPred.indirectLookups          489015                       # Number of indirect predictor lookups.
system.cpu.branchPred.indirectMisses           213562                       # Number of indirect misses.
system.cpu.branchPred.lookups                  550149                       # Number of BP lookups
system.cpu.branchPred.usedRAS                   16165                       # Number of times the RAS was used to get a target.
system.cpu.branchPredindirectMispredicted        11859                       # Number of mispredicted indirect branches.
system.cpu.cc_regfile_reads                   2621393                       # number of cc regfile reads
system.cpu.cc_regfile_writes                  2100543                       # number of cc regfile writes
system.cpu.commit.amos                              0                       # Number of atomic instructions committed
system.cpu.commit.branchMispredicts             23686                       # The number of times a branch was mispredicted
system.cpu.commit.branches                     386536                       # Number of branches committed
system.cpu.commit.bw_lim_events                655149                       # number cycles where commit BW limit reached
system.cpu.commit.commitNonSpecStalls            1086                       # The number of times commit has been forced to stall to communicate backwards
system.cpu.commit.commitSquashedInsts         1013415                       # The number of squashed insts skipped by commit
system.cpu.commit.committedInsts              2341238                       # Number of instructions committed
system.cpu.commit.committedOps                4071898                       # Number of ops (including micro ops) committed
system.cpu.commit.committed_per_cycle::samples      2746230                       # Number of insts commited each cycle
system.cpu.commit.committed_per_cycle::mean     1.482723                       # Number of insts commited each cycle
system.cpu.commit.committed_per_cycle::stdev     1.705403                       # Number of insts commited each cycle
system.cpu.commit.committed_per_cycle::underflows            0      0.00%      0.00% # Number of insts commited each cycle
system.cpu.commit.committed_per_cycle::0      1394220     50.77%     50.77% # Number of insts commited each cycle
system.cpu.commit.committed_per_cycle::1       233451      8.50%     59.27% # Number of insts commited each cycle
system.cpu.commit.committed_per_cycle::2       172379      6.28%     65.55% # Number of insts commited each cycle
system.cpu.commit.committed_per_cycle::3       291031     10.60%     76.14% # Number of insts commited each cycle
system.cpu.commit.committed_per_cycle::4       655149     23.86%    100.00% # Number of insts commited each cycle
system.cpu.commit.committed_per_cycle::overflows            0      0.00%    100.00% # Number of insts commited each cycle
system.cpu.commit.committed_per_cycle::min_value            0                       # Number of insts commited each cycle
system.cpu.commit.committed_per_cycle::max_value            4                       # Number of insts commited each cycle
system.cpu.commit.committed_per_cycle::total      2746230                       # Number of insts commited each cycle
system.cpu.commit.fp_insts                     104712                       # Number of committed floating point instructions.
system.cpu.commit.function_calls                11091                       # Number of function calls committed.
system.cpu.commit.int_insts                   4010834                       # Number of committed integer instructions.
system.cpu.commit.loads                        603964                       # Number of loads committed
system.cpu.commit.membars                           1                       # Number of memory barriers committed
system.cpu.commit.op_class_0::No_OpClass        20455      0.50%      0.50% # Class of committed instruction
system.cpu.commit.op_class_0::IntAlu          3144936     77.24%     77.74% # Class of committed instruction
system.cpu.commit.op_class_0::IntMult              35      0.00%     77.74% # Class of committed instruction
system.cpu.commit.op_class_0::IntDiv            36296      0.89%     78.63% # Class of committed instruction
system.cpu.commit.op_class_0::FloatAdd           3019      0.07%     78.70% # Class of committed instruction
system.cpu.commit.op_class_0::FloatCmp              0      0.00%     78.70% # Class of committed instruction
system.cpu.commit.op_class_0::FloatCvt           1296      0.03%     78.74% # Class of committed instruction
system.cpu.commit.op_class_0::FloatMult             0      0.00%     78.74% # Class of committed instruction
system.cpu.commit.op_class_0::FloatMultAcc            0      0.00%     78.74% # Class of committed instruction
system.cpu.commit.op_class_0::FloatDiv              0      0.00%     78.74% # Class of committed instruction
system.cpu.commit.op_class_0::FloatMisc             0      0.00%     78.74% # Class of committed instruction
system.cpu.commit.op_class_0::FloatSqrt             0      0.00%     78.74% # Class of committed instruction
system.cpu.commit.op_class_0::SimdAdd            6308      0.15%     78.89% # Class of committed instruction
system.cpu.commit.op_class_0::SimdAddAcc            0      0.00%     78.89% # Class of committed instruction
system.cpu.commit.op_class_0::SimdAlu           12355      0.30%     79.19% # Class of committed instruction
system.cpu.commit.op_class_0::SimdCmp            1506      0.04%     79.23% # Class of committed instruction
system.cpu.commit.op_class_0::SimdCvt           14408      0.35%     79.58% # Class of committed instruction
system.cpu.commit.op_class_0::SimdMisc           9413      0.23%     79.82% # Class of committed instruction
system.cpu.commit.op_class_0::SimdMult              0      0.00%     79.82% # Class of committed instruction
system.cpu.commit.op_class_0::SimdMultAcc            0      0.00%     79.82% # Class of committed instruction
system.cpu.commit.op_class_0::SimdShift          1233      0.03%     79.85% # Class of committed instruction
system.cpu.commit.op_class_0::SimdShiftAcc            0      0.00%     79.85% # Class of committed instruction
system.cpu.commit.op_class_0::SimdDiv               0      0.00%     79.85% # Class of committed instruction
system.cpu.commit.op_class_0::SimdSqrt              0      0.00%     79.85% # Class of committed instruction
system.cpu.commit.op_class_0::SimdFloatAdd            0      0.00%     79.85% # Class of committed instruction
system.cpu.commit.op_class_0::SimdFloatAlu            0      0.00%     79.85% # Class of committed instruction
system.cpu.commit.op_class_0::SimdFloatCmp            0      0.00%     79.85% # Class of committed instruction
system.cpu.commit.op_class_0::SimdFloatCvt            0      0.00%     79.85% # Class of committed instruction
system.cpu.commit.op_class_0::SimdFloatDiv            0      0.00%     79.85% # Class of committed instruction
system.cpu.commit.op_class_0::SimdFloatMisc            0      0.00%     79.85% # Class of committed instruction
system.cpu.commit.op_class_0::SimdFloatMult            0      0.00%     79.85% # Class of committed instruction
system.cpu.commit.op_class_0::SimdFloatMultAcc            0      0.00%     79.85% # Class of committed instruction
system.cpu.commit.op_class_0::SimdFloatSqrt            0      0.00%     79.85% # Class of committed instruction
system.cpu.commit.op_class_0::SimdReduceAdd            0      0.00%     79.85% # Class of committed instruction
system.cpu.commit.op_class_0::SimdReduceAlu            0      0.00%     79.85% # Class of committed instruction
system.cpu.commit.op_class_0::SimdReduceCmp            0      0.00%     79.85% # Class of committed instruction
system.cpu.commit.op_class_0::SimdFloatReduceAdd            0      0.00%     79.85% # Class of committed instruction
system.cpu.commit.op_class_0::SimdFloatReduceCmp            0      0.00%     79.85% # Class of committed instruction
system.cpu.commit.op_class_0::SimdAes               0      0.00%     79.85% # Class of committed instruction
system.cpu.commit.op_class_0::SimdAesMix            0      0.00%     79.85% # Class of committed instruction
system.cpu.commit.op_class_0::SimdSha1Hash            0      0.00%     79.85% # Class of committed instruction
system.cpu.commit.op_class_0::SimdSha1Hash2            0      0.00%     79.85% # Class of committed instruction
system.cpu.commit.op_class_0::SimdSha256Hash            0      0.00%     79.85% # Class of committed instruction
system.cpu.commit.op_class_0::SimdSha256Hash2            0      0.00%     79.85% # Class of committed instruction
system.cpu.commit.op_class_0::SimdShaSigma2            0      0.00%     79.85% # Class of committed instruction
system.cpu.commit.op_class_0::SimdShaSigma3            0      0.00%     79.85% # Class of committed instruction
system.cpu.commit.op_class_0::SimdPredAlu            0      0.00%     79.85% # Class of committed instruction
system.cpu.commit.op_class_0::MemRead          573020     14.07%     93.92% # Class of committed instruction
system.cpu.commit.op_class_0::MemWrite         193385      4.75%     98.67% # Class of committed instruction
system.cpu.commit.op_class_0::FloatMemRead        30944      0.76%     99.43% # Class of committed instruction
system.cpu.commit.op_class_0::FloatMemWrite        23289      0.57%    100.00% # Class of committed instruction
system.cpu.commit.op_class_0::IprAccess             0      0.00%    100.00% # Class of committed instruction
system.cpu.commit.op_class_0::InstPrefetch            0      0.00%    100.00% # Class of committed instruction
system.cpu.commit.op_class_0::total           4071898                       # Class of committed instruction
system.cpu.commit.refs                         820638                       # Number of memory references committed
system.cpu.commit.swp_count                         0                       # Number of s/w prefetches committed
system.cpu.commit.vec_insts                         0                       # Number of committed Vector instructions.
system.cpu.committedInsts                     2341238                       # Number of Instructions Simulated
system.cpu.committedOps                       4071898                       # Number of Ops (including micro ops) Simulated
system.cpu.cpi                               1.358409                       # CPI: Cycles Per Instruction
system.cpu.cpi_total                         1.358409                       # CPI: Total CPI of All Threads
system.cpu.dcache.prefetcher.num_hwpf_issued         8335                       # number of hwpf issued
system.cpu.dcache.prefetcher.pfBufferHit        34183                       # number of redundant prefetches already in prefetch queue
system.cpu.dcache.prefetcher.pfIdentified        49422                       # number of prefetch candidates identified
system.cpu.dcache.prefetcher.pfInCache              0                       # number of redundant prefetches already in cache/mshr dropped
system.cpu.dcache.prefetcher.pfRemovedFull            0                       # number of prefetches dropped due to prefetch queue size
system.cpu.dcache.prefetcher.pfSpanPage          4374                       # number of prefetches that crossed the page
system.cpu.decode.BlockedCycles               1229592                       # Number of cycles decode is blocked
system.cpu.decode.DecodedInsts                5398076                       # Number of instructions handled by decode
system.cpu.decode.IdleCycles                   348912                       # Number of cycles decode is idle
system.cpu.decode.RunCycles                   1296629                       # Number of cycles decode is running
system.cpu.decode.SquashCycles                  26163                       # Number of cycles decode is squashing
system.cpu.decode.UnblockCycles                119371                       # Number of cycles decode is unblocking
system.cpu.dtb.rdAccesses                      714379                       # TLB accesses on read requests
system.cpu.dtb.rdMisses                          2061                       # TLB misses on read requests
system.cpu.dtb.wrAccesses                      267593                       # TLB accesses on write requests
system.cpu.dtb.wrMisses                           179                       # TLB misses on write requests
system.cpu.fetch.Branches                      550149                       # Number of branches that fetch encountered
system.cpu.fetch.CacheLines                    316032                       # Number of cache lines fetched
system.cpu.fetch.Cycles                       2578207                       # Number of cycles fetch has run and was not squashing or blocked
system.cpu.fetch.IcacheSquashes                  5259                       # Number of outstanding Icache misses that were squashed
system.cpu.fetch.IcacheWaitRetryStallCycles           13                       # Number of stall cycles due to full MSHR
system.cpu.fetch.Insts                        3220591                       # Number of instructions fetch has processed
system.cpu.fetch.MiscStallCycles                   98                       # Number of cycles fetch has spent waiting on interrupts, or bad addresses, or out of MSHRs
system.cpu.fetch.PendingQuiesceStallCycles           16                       # Number of stall cycles due to pending quiesce instructions
system.cpu.fetch.PendingTrapStallCycles           505                       # Number of stall cycles due to pending traps
system.cpu.fetch.SquashCycles                   52326                       # Number of cycles fetch has spent squashing
system.cpu.fetch.branchRate                  0.172983                       # Number of branch fetches per cycle
system.cpu.fetch.icacheStallCycles             415665                       # Number of cycles fetch is stalled on an Icache miss
system.cpu.fetch.predictedBranches             291618                       # Number of branches that fetch has predicted taken
system.cpu.fetch.rate                        1.012650                       # Number of inst fetches per cycle
system.cpu.fetch.rateDist::samples            3020667                       # Number of instructions fetched each cycle (Total)
system.cpu.fetch.rateDist::mean              1.883833                       # Number of instructions fetched each cycle (Total)
system.cpu.fetch.rateDist::stdev             1.917404                       # Number of instructions fetched each cycle (Total)
system.cpu.fetch.rateDist::underflows               0      0.00%      0.00% # Number of instructions fetched each cycle (Total)
system.cpu.fetch.rateDist::0                  1460127     48.34%     48.34% # Number of instructions fetched each cycle (Total)
system.cpu.fetch.rateDist::1                    85354      2.83%     51.16% # Number of instructions fetched each cycle (Total)
system.cpu.fetch.rateDist::2                   103224      3.42%     54.58% # Number of instructions fetched each cycle (Total)
system.cpu.fetch.rateDist::3                    89217      2.95%     57.53% # Number of instructions fetched each cycle (Total)
system.cpu.fetch.rateDist::4                  1282745     42.47%    100.00% # Number of instructions fetched each cycle (Total)
system.cpu.fetch.rateDist::overflows                0      0.00%    100.00% # Number of instructions fetched each cycle (Total)
system.cpu.fetch.rateDist::min_value                0                       # Number of instructions fetched each cycle (Total)
system.cpu.fetch.rateDist::max_value                4                       # Number of instructions fetched each cycle (Total)
system.cpu.fetch.rateDist::total              3020667                       # Number of instructions fetched each cycle (Total)
system.cpu.fp_regfile_reads                    176381                       # number of floating regfile reads
system.cpu.fp_regfile_writes                    96618                       # number of floating regfile writes
system.cpu.fuPool.fu_ticks_busy::IntALU(0)    245070400                       # Total ticks fu was busy
system.cpu.fuPool.fu_ticks_busy::IntALU(1)    245070400                       # Total ticks fu was busy
system.cpu.fuPool.fu_ticks_busy::IntALU(2)    245070400                       # Total ticks fu was busy
system.cpu.fuPool.fu_ticks_busy::IntALU(3)    245070400                       # Total ticks fu was busy
system.cpu.fuPool.fu_ticks_busy::IntALU(4)    245070400                       # Total ticks fu was busy
system.cpu.fuPool.fu_ticks_busy::IntALU(5)    245070400                       # Total ticks fu was busy
system.cpu.fuPool.fu_ticks_busy::IntMultDiv(0)      7975200                       # Total ticks fu was busy
system.cpu.fuPool.fu_ticks_busy::IntMultDiv(1)      7975200                       # Total ticks fu was busy
system.cpu.fuPool.fu_ticks_busy::FP_ALU(0)       592000                       # Total ticks fu was busy
system.cpu.fuPool.fu_ticks_busy::FP_ALU(1)       591600                       # Total ticks fu was busy
system.cpu.fuPool.fu_ticks_busy::FP_ALU(2)       591200                       # Total ticks fu was busy
system.cpu.fuPool.fu_ticks_busy::FP_ALU(3)       591200                       # Total ticks fu was busy
system.cpu.fuPool.fu_ticks_busy::FP_MultDiv(0)            0                       # Total ticks fu was busy
system.cpu.fuPool.fu_ticks_busy::FP_MultDiv(1)            0                       # Total ticks fu was busy
system.cpu.fuPool.fu_ticks_busy::SIMD_Unit(0)      5620000                       # Total ticks fu was busy
system.cpu.fuPool.fu_ticks_busy::SIMD_Unit(1)      5544000                       # Total ticks fu was busy
system.cpu.fuPool.fu_ticks_busy::SIMD_Unit(2)      5536400                       # Total ticks fu was busy
system.cpu.fuPool.fu_ticks_busy::SIMD_Unit(3)      5607600                       # Total ticks fu was busy
system.cpu.fuPool.fu_ticks_busy::PredALU(0)            0                       # Total ticks fu was busy
system.cpu.fuPool.fu_ticks_busy::RdWrPort(0)     99722800                       # Total ticks fu was busy
system.cpu.fuPool.fu_ticks_busy::RdWrPort(1)     99645600                       # Total ticks fu was busy
system.cpu.fuPool.fu_ticks_busy::RdWrPort(2)     99713200                       # Total ticks fu was busy
system.cpu.fuPool.fu_ticks_busy::RdWrPort(3)     99673200                       # Total ticks fu was busy
system.cpu.fuPool.fu_ticks_busy::IprPort(0)            0                       # Total ticks fu was busy
system.cpu.fuPool.fu_ticks_busy::total     1909801600                       # Total ticks fu was busy
system.cpu.icache.prefetcher.num_hwpf_issued            0                       # number of hwpf issued
system.cpu.icache.prefetcher.pfBufferHit            0                       # number of redundant prefetches already in prefetch queue
system.cpu.icache.prefetcher.pfIdentified            0                       # number of prefetch candidates identified
system.cpu.icache.prefetcher.pfInCache              0                       # number of redundant prefetches already in cache/mshr dropped
system.cpu.icache.prefetcher.pfRemovedFull            0                       # number of prefetches dropped due to prefetch queue size
system.cpu.icache.prefetcher.pfSpanPage             0                       # number of prefetches that crossed the page
system.cpu.idleCycles                          159692                       # Total number of cycles that the CPU has spent unscheduled due to idling
system.cpu.iew.branchMispredicts                28452                       # Number of branch mispredicts detected at execute
system.cpu.iew.exec_branches                   432284                       # Number of branches executed
system.cpu.iew.exec_nop                             0                       # number of nop insts executed
system.cpu.iew.exec_rate                     1.501042                       # Inst execution rate
system.cpu.iew.exec_refs                       983731                       # number of memory reference insts executed
system.cpu.iew.exec_stores                     267585                       # Number of stores executed
system.cpu.iew.exec_swp                             0                       # number of swp insts executed
system.cpu.iew.iewBlockCycles                  743237                       # Number of cycles IEW is blocking
system.cpu.iew.iewDispLoadInsts                748510                       # Number of dispatched load instructions
system.cpu.iew.iewDispNonSpecInsts                993                       # Number of dispatched non-speculative instructions
system.cpu.iew.iewDispSquashedInsts               448                       # Number of squashed instructions skipped by dispatch
system.cpu.iew.iewDispStoreInsts               314706                       # Number of dispatched store instructions
system.cpu.iew.iewDispatchedInsts             5171476                       # Number of instructions dispatched to IQ
system.cpu.iew.iewExecLoadInsts                716146                       # Number of load instructions executed
system.cpu.iew.iewExecSquashedInsts             37925                       # Number of squashed instructions skipped in execute
system.cpu.iew.iewExecutedInsts               4773851                       # Number of executed instructions
system.cpu.iew.iewIQFullEvents                   3441                       # Number of times the IQ has become full, causing a stall
system.cpu.iew.iewIdleCycles                        0                       # Number of cycles IEW is idle
system.cpu.iew.iewLSQFullEvents                 22570                       # Number of times the LSQ has become full, causing a stall
system.cpu.iew.iewSquashCycles                  26163                       # Number of cycles IEW is squashing
system.cpu.iew.iewUnblockCycles                 28771                       # Number of cycles IEW is unblocking
system.cpu.iew.lsq.thread0.blockedLoads             0                       # Number of blocked loads due to partial load-store forwarding
system.cpu.iew.lsq.thread0.cacheBlocked           623                       # Number of times an access to memory failed due to the cache being blocked
system.cpu.iew.lsq.thread0.forwLoads            40285                       # Number of loads that had data forwarded from stores
system.cpu.iew.lsq.thread0.ignoredResponses          248                       # Number of memory responses ignored because the instruction is squashed
system.cpu.iew.lsq.thread0.invAddrLoads             0                       # Number of loads ignored due to an invalid address
system.cpu.iew.lsq.thread0.invAddrSwpfs             0                       # Number of software prefetches ignored due to an invalid address
system.cpu.iew.lsq.thread0.memOrderViolation           95                       # Number of memory ordering violations
system.cpu.iew.lsq.thread0.rescheduledLoads            0                       # Number of loads that were rescheduled
system.cpu.iew.lsq.thread0.squashedLoads       144544                       # Number of loads squashed
system.cpu.iew.lsq.thread0.squashedStores        98031                       # Number of stores squashed
system.cpu.iew.memOrderViolationEvents             95                       # Number of memory order violations
system.cpu.iew.predictedNotTakenIncorrect        20200                       # Number of branches that were predicted not taken incorrectly
system.cpu.iew.predictedTakenIncorrect           8252                       # Number of branches that were predicted taken incorrectly
system.cpu.iew.wb_consumers                   6396885                       # num instructions consuming a value
system.cpu.iew.wb_count                       4739902                       # cumulative count of insts written-back
system.cpu.iew.wb_fanout                     0.581435                       # average fanout of values written-back
system.cpu.iew.wb_producers                   3719370                       # num instructions producing a value
system.cpu.iew.wb_rate                       1.490367                       # insts written-back per cycle
system.cpu.iew.wb_sent                        4758314                       # cumulative count of insts sent to commit
system.cpu.int_regfile_reads                  7413429                       # number of integer regfile reads
system.cpu.int_regfile_writes                 4014976                       # number of integer regfile writes
system.cpu.ipc                               0.736155                       # IPC: Instructions Per Cycle
system.cpu.ipc_total                         0.736155                       # IPC: Total IPC of All Threads
system.cpu.iq.FU_type_0::No_OpClass             37272      0.77%      0.77% # Type of FU issued
system.cpu.iq.FU_type_0::IntAlu               3676057     76.40%     77.17% # Type of FU issued
system.cpu.iq.FU_type_0::IntMult                   60      0.00%     77.17% # Type of FU issued
system.cpu.iq.FU_type_0::IntDiv                 39816      0.83%     78.00% # Type of FU issued
system.cpu.iq.FU_type_0::FloatAdd                4605      0.10%     78.10% # Type of FU issued
system.cpu.iq.FU_type_0::FloatCmp                   0      0.00%     78.10% # Type of FU issued
system.cpu.iq.FU_type_0::FloatCvt                1310      0.03%     78.12% # Type of FU issued
system.cpu.iq.FU_type_0::FloatMult                  0      0.00%     78.12% # Type of FU issued
system.cpu.iq.FU_type_0::FloatMultAcc               0      0.00%     78.12% # Type of FU issued
system.cpu.iq.FU_type_0::FloatDiv                   0      0.00%     78.12% # Type of FU issued
system.cpu.iq.FU_type_0::FloatMisc                  0      0.00%     78.12% # Type of FU issued
system.cpu.iq.FU_type_0::FloatSqrt                  0      0.00%     78.12% # Type of FU issued
system.cpu.iq.FU_type_0::SimdAdd                 7000      0.15%     78.27% # Type of FU issued
system.cpu.iq.FU_type_0::SimdAddAcc                 0      0.00%     78.27% # Type of FU issued
system.cpu.iq.FU_type_0::SimdAlu                16963      0.35%     78.62% # Type of FU issued
system.cpu.iq.FU_type_0::SimdCmp                 1821      0.04%     78.66% # Type of FU issued
system.cpu.iq.FU_type_0::SimdCvt                16982      0.35%     79.01% # Type of FU issued
system.cpu.iq.FU_type_0::SimdMisc               10697      0.22%     79.23% # Type of FU issued
system.cpu.iq.FU_type_0::SimdMult                   0      0.00%     79.23% # Type of FU issued
system.cpu.iq.FU_type_0::SimdMultAcc                0      0.00%     79.23% # Type of FU issued
system.cpu.iq.FU_type_0::SimdShift               2307      0.05%     79.28% # Type of FU issued
system.cpu.iq.FU_type_0::SimdShiftAcc               0      0.00%     79.28% # Type of FU issued
system.cpu.iq.FU_type_0::SimdDiv                    0      0.00%     79.28% # Type of FU issued
system.cpu.iq.FU_type_0::SimdSqrt                   0      0.00%     79.28% # Type of FU issued
system.cpu.iq.FU_type_0::SimdFloatAdd               0      0.00%     79.28% # Type of FU issued
system.cpu.iq.FU_type_0::SimdFloatAlu               0      0.00%     79.28% # Type of FU issued
system.cpu.iq.FU_type_0::SimdFloatCmp               0      0.00%     79.28% # Type of FU issued
system.cpu.iq.FU_type_0::SimdFloatCvt               0      0.00%     79.28% # Type of FU issued
system.cpu.iq.FU_type_0::SimdFloatDiv               0      0.00%     79.28% # Type of FU issued
system.cpu.iq.FU_type_0::SimdFloatMisc              0      0.00%     79.28% # Type of FU issued
system.cpu.iq.FU_type_0::SimdFloatMult              0      0.00%     79.28% # Type of FU issued
system.cpu.iq.FU_type_0::SimdFloatMultAcc            0      0.00%     79.28% # Type of FU issued
system.cpu.iq.FU_type_0::SimdFloatSqrt              0      0.00%     79.28% # Type of FU issued
system.cpu.iq.FU_type_0::SimdReduceAdd              0      0.00%     79.28% # Type of FU issued
system.cpu.iq.FU_type_0::SimdReduceAlu              0      0.00%     79.28% # Type of FU issued
system.cpu.iq.FU_type_0::SimdReduceCmp              0      0.00%     79.28% # Type of FU issued
system.cpu.iq.FU_type_0::SimdFloatReduceAdd            0      0.00%     79.28% # Type of FU issued
system.cpu.iq.FU_type_0::SimdFloatReduceCmp            0      0.00%     79.28% # Type of FU issued
system.cpu.iq.FU_type_0::SimdAes                    0      0.00%     79.28% # Type of FU issued
system.cpu.iq.FU_type_0::SimdAesMix                 0      0.00%     79.28% # Type of FU issued
system.cpu.iq.FU_type_0::SimdSha1Hash               0      0.00%     79.28% # Type of FU issued
system.cpu.iq.FU_type_0::SimdSha1Hash2              0      0.00%     79.28% # Type of FU issued
system.cpu.iq.FU_type_0::SimdSha256Hash             0      0.00%     79.28% # Type of FU issued
system.cpu.iq.FU_type_0::SimdSha256Hash2            0      0.00%     79.28% # Type of FU issued
system.cpu.iq.FU_type_0::SimdShaSigma2              0      0.00%     79.28% # Type of FU issued
system.cpu.iq.FU_type_0::SimdShaSigma3              0      0.00%     79.28% # Type of FU issued
system.cpu.iq.FU_type_0::SimdPredAlu                0      0.00%     79.28% # Type of FU issued
system.cpu.iq.FU_type_0::MemRead               678162     14.09%     93.38% # Type of FU issued
system.cpu.iq.FU_type_0::MemWrite              224206      4.66%     98.04% # Type of FU issued
system.cpu.iq.FU_type_0::FloatMemRead           48442      1.01%     99.04% # Type of FU issued
system.cpu.iq.FU_type_0::FloatMemWrite          46079      0.96%    100.00% # Type of FU issued
system.cpu.iq.FU_type_0::IprAccess                  0      0.00%    100.00% # Type of FU issued
system.cpu.iq.FU_type_0::InstPrefetch               0      0.00%    100.00% # Type of FU issued
system.cpu.iq.FU_type_0::total                4811779                       # Type of FU issued
system.cpu.iq.fp_alu_accesses                  157311                       # Number of floating point alu accesses
system.cpu.iq.fp_inst_queue_reads              315902                       # Number of floating instruction queue reads
system.cpu.iq.fp_inst_queue_wakeup_accesses       152909                       # Number of floating instruction queue wakeup accesses
system.cpu.iq.fp_inst_queue_writes             283312                       # Number of floating instruction queue writes
system.cpu.iq.fu_busy_cnt                           0                       # FU busy when requested
system.cpu.iq.fu_busy_rate                          0                       # FU busy rate (busy events/executed inst)
system.cpu.iq.fu_full::No_OpClass                   0                       # attempts to use FU when none available
system.cpu.iq.fu_full::IntAlu                       0                       # attempts to use FU when none available
system.cpu.iq.fu_full::IntMult                      0                       # attempts to use FU when none available
system.cpu.iq.fu_full::IntDiv                       0                       # attempts to use FU when none available
system.cpu.iq.fu_full::FloatAdd                     0                       # attempts to use FU when none available
system.cpu.iq.fu_full::FloatCmp                     0                       # attempts to use FU when none available
system.cpu.iq.fu_full::FloatCvt                     0                       # attempts to use FU when none available
system.cpu.iq.fu_full::FloatMult                    0                       # attempts to use FU when none available
system.cpu.iq.fu_full::FloatMultAcc                 0                       # attempts to use FU when none available
system.cpu.iq.fu_full::FloatDiv                     0                       # attempts to use FU when none available
system.cpu.iq.fu_full::FloatMisc                    0                       # attempts to use FU when none available
system.cpu.iq.fu_full::FloatSqrt                    0                       # attempts to use FU when none available
system.cpu.iq.fu_full::SimdAdd                      0                       # attempts to use FU when none available
system.cpu.iq.fu_full::SimdAddAcc                   0                       # attempts to use FU when none available
system.cpu.iq.fu_full::SimdAlu                      0                       # attempts to use FU when none available
system.cpu.iq.fu_full::SimdCmp                      0                       # attempts to use FU when none available
system.cpu.iq.fu_full::SimdCvt                      0                       # attempts to use FU when none available
system.cpu.iq.fu_full::SimdMisc                     0                       # attempts to use FU when none available
system.cpu.iq.fu_full::SimdMult                     0                       # attempts to use FU when none available
system.cpu.iq.fu_full::SimdMultAcc                  0                       # attempts to use FU when none available
system.cpu.iq.fu_full::SimdShift                    0                       # attempts to use FU when none available
system.cpu.iq.fu_full::SimdShiftAcc                 0                       # attempts to use FU when none available
system.cpu.iq.fu_full::SimdDiv                      0                       # attempts to use FU when none available
system.cpu.iq.fu_full::SimdSqrt                     0                       # attempts to use FU when none available
system.cpu.iq.fu_full::SimdFloatAdd                 0                       # attempts to use FU when none available
system.cpu.iq.fu_full::SimdFloatAlu                 0                       # attempts to use FU when none available
system.cpu.iq.fu_full::SimdFloatCmp                 0                       # attempts to use FU when none available
system.cpu.iq.fu_full::SimdFloatCvt                 0                       # attempts to use FU when none available
system.cpu.iq.fu_full::SimdFloatDiv                 0                       # attempts to use FU when none available
system.cpu.iq.fu_full::SimdFloatMisc                0                       # attempts to use FU when none available
system.cpu.iq.fu_full::SimdFloatMult                0                       # attempts to use FU when none available
system.cpu.iq.fu_full::SimdFloatMultAcc             0                       # attempts to use FU when none available
system.cpu.iq.fu_full::SimdFloatSqrt                0                       # attempts to use FU when none available
system.cpu.iq.fu_full::SimdReduceAdd                0                       # attempts to use FU when none available
system.cpu.iq.fu_full::SimdReduceAlu                0                       # attempts to use FU when none available
system.cpu.iq.fu_full::SimdReduceCmp                0                       # attempts to use FU when none available
system.cpu.iq.fu_full::SimdFloatReduceAdd            0                       # attempts to use FU when none available
system.cpu.iq.fu_full::SimdFloatReduceCmp            0                       # attempts to use FU when none available
system.cpu.iq.fu_full::SimdAes                      0                       # attempts to use FU when none available
system.cpu.iq.fu_full::SimdAesMix                   0                       # attempts to use FU when none available
system.cpu.iq.fu_full::SimdSha1Hash                 0                       # attempts to use FU when none available
system.cpu.iq.fu_full::SimdSha1Hash2                0                       # attempts to use FU when none available
system.cpu.iq.fu_full::SimdSha256Hash               0                       # attempts to use FU when none available
system.cpu.iq.fu_full::SimdSha256Hash2              0                       # attempts to use FU when none available
system.cpu.iq.fu_full::SimdShaSigma2                0                       # attempts to use FU when none available
system.cpu.iq.fu_full::SimdShaSigma3                0                       # attempts to use FU when none available
system.cpu.iq.fu_full::SimdPredAlu                  0                       # attempts to use FU when none available
system.cpu.iq.fu_full::MemRead                      0                       # attempts to use FU when none available
system.cpu.iq.fu_full::MemWrite                     0                       # attempts to use FU when none available
system.cpu.iq.fu_full::FloatMemRead                 0                       # attempts to use FU when none available
system.cpu.iq.fu_full::FloatMemWrite                0                       # attempts to use FU when none available
system.cpu.iq.fu_full::IprAccess                    0                       # attempts to use FU when none available
system.cpu.iq.fu_full::InstPrefetch                 0                       # attempts to use FU when none available
system.cpu.iq.int_alu_accesses                4617196                       # Number of integer alu accesses
system.cpu.iq.int_inst_queue_reads           12346672                       # Number of integer instruction queue reads
system.cpu.iq.int_inst_queue_wakeup_accesses      4586993                       # Number of integer instruction queue wakeup accesses
system.cpu.iq.int_inst_queue_writes           5987825                       # Number of integer instruction queue writes
system.cpu.iq.iqInstsAdded                    5167592                       # Number of instructions added to the IQ (excludes non-spec)
system.cpu.iq.iqInstsIssued                   4811779                       # Number of instructions issued
system.cpu.iq.iqNonSpecInstsAdded                3884                       # Number of non-speculative instructions added to the IQ
system.cpu.iq.iqSquashedInstsExamined         1099567                       # Number of squashed instructions iterated over during squash; mainly for profiling
system.cpu.iq.iqSquashedInstsIssued             18352                       # Number of squashed instructions issued
system.cpu.iq.iqSquashedNonSpecRemoved           2798                       # Number of squashed non-spec instructions that were removed
system.cpu.iq.iqSquashedOperandsExamined      1465243                       # Number of squashed operands that are examined and possibly removed from graph
system.cpu.iq.issued_per_cycle::samples       3020667                       # Number of insts issued each cycle
system.cpu.iq.issued_per_cycle::mean         1.592952                       # Number of insts issued each cycle
system.cpu.iq.issued_per_cycle::stdev        1.647083                       # Number of insts issued each cycle
system.cpu.iq.issued_per_cycle::underflows            0      0.00%      0.00% # Number of insts issued each cycle
system.cpu.iq.issued_per_cycle::0             1341455     44.41%     44.41% # Number of insts issued each cycle
system.cpu.iq.issued_per_cycle::1              268903      8.90%     53.31% # Number of insts issued each cycle
system.cpu.iq.issued_per_cycle::2              357158     11.82%     65.14% # Number of insts issued each cycle
system.cpu.iq.issued_per_cycle::3              384044     12.71%     77.85% # Number of insts issued each cycle
system.cpu.iq.issued_per_cycle::4              669107     22.15%    100.00% # Number of insts issued each cycle
system.cpu.iq.issued_per_cycle::overflows            0      0.00%    100.00% # Number of insts issued each cycle
system.cpu.iq.issued_per_cycle::min_value            0                       # Number of insts issued each cycle
system.cpu.iq.issued_per_cycle::max_value            4                       # Number of insts issued each cycle
system.cpu.iq.issued_per_cycle::total         3020667                       # Number of insts issued each cycle
system.cpu.iq.rate                           1.512967                       # Inst issue rate
system.cpu.iq.vec_alu_accesses                      0                       # Number of vector alu accesses
system.cpu.iq.vec_inst_queue_reads                  0                       # Number of vector instruction queue reads
system.cpu.iq.vec_inst_queue_wakeup_accesses            0                       # Number of vector instruction queue wakeup accesses
system.cpu.iq.vec_inst_queue_writes                 0                       # Number of vector instruction queue writes
system.cpu.itb.rdAccesses                           0                       # TLB accesses on read requests
system.cpu.itb.rdMisses                             0                       # TLB misses on read requests
system.cpu.itb.wrAccesses                      316119                       # TLB accesses on write requests
system.cpu.itb.wrMisses                           329                       # TLB misses on write requests
system.cpu.memDep0.conflictingLoads             10743                       # Number of conflicting loads.
system.cpu.memDep0.conflictingStores            48065                       # Number of conflicting stores.
system.cpu.memDep0.insertedLoads               748510                       # Number of loads inserted to the mem dependence unit.
system.cpu.memDep0.insertedStores              314706                       # Number of stores inserted to the mem dependence unit.
system.cpu.misc_regfile_reads                 1904068                       # number of misc regfile reads
system.cpu.misc_regfile_writes                    729                       # number of misc regfile writes
system.cpu.numCycles                          3180359                       # number of cpu cycles simulated
system.cpu.numWorkItemsCompleted                    0                       # number of work items this cpu completed
system.cpu.numWorkItemsStarted                      0                       # number of work items this cpu started
system.cpu.process.numSyscalls                     56                       # Number of system calls
system.cpu.rename.BlockCycles                  918642                       # Number of cycles rename is blocking
system.cpu.rename.CommittedMaps               5438191                       # Number of HB maps that are committed
system.cpu.rename.FullRegisterEvents               37                       # Number of times there has been no free registers
system.cpu.rename.IQFullEvents                  44942                       # Number of times rename has blocked due to IQ full
system.cpu.rename.IdleCycles                   415015                       # Number of cycles rename is idle
system.cpu.rename.LQFullEvents                  78569                       # Number of times rename has blocked due to LQ full
system.cpu.rename.ROBFullEvents                  6043                       # Number of times rename has blocked due to ROB full
system.cpu.rename.RenameLookups              13905137                       # Number of register rename lookups that rename has made
system.cpu.rename.RenamedInsts                5316694                       # Number of instructions processed by rename
system.cpu.rename.RenamedOperands             6977639                       # Number of destination operands rename has renamed
system.cpu.rename.RunCycles                   1341424                       # Number of cycles rename is running
system.cpu.rename.SQFullEvents                 124999                       # Number of times rename has blocked due to SQ full
system.cpu.rename.SquashCycles                  26163                       # Number of cycles rename is squashing
system.cpu.rename.UnblockCycles                299184                       # Number of cycles rename is unblocking
system.cpu.rename.UndoneMaps                  1539425                       # Number of HB maps that are undone due to squashing
system.cpu.rename.fp_rename_lookups            240158                       # Number of floating rename lookups
system.cpu.rename.int_rename_lookups          8445027                       # Number of integer rename lookups
system.cpu.rename.serializeStallCycles          20239                       # count of cycles rename stalled for serializing inst
system.cpu.rename.serializingInsts                925                       # count of serializing insts renamed
system.cpu.rename.skidInsts                    300026                       # count of insts added to the skid buffer
system.cpu.rename.tempSerializingInsts            980                       # count of temporary serializing insts renamed
system.cpu.rob.rob_reads                      7145194                       # The number of ROB reads
system.cpu.rob.rob_writes                    10445977                       # The number of ROB writes
system.cpu.timesIdled                            1782                       # Number of times that the entire CPU went into an idle state and unscheduled itself
system.l2bus.snoop_filter.hit_multi_requests           11                       # Number of requests hitting in the snoop filter with multiple (>1) holders of the requested data.
system.l2bus.snoop_filter.hit_multi_snoops            0                       # Number of snoops hitting in the snoop filter with multiple (>1) holders of the requested data.
system.l2bus.snoop_filter.hit_single_requests        20088                       # Number of requests hitting in the snoop filter with a single holder of the requested data.
system.l2bus.snoop_filter.hit_single_snoops          494                       # Number of snoops hitting in the snoop filter with a single holder of the requested data.
system.l2bus.snoop_filter.tot_requests          41457                       # Total number of requests made to the snoop filter.
system.l2bus.snoop_filter.tot_snoops              494                       # Total number of snoops made to the snoop filter.
system.l2cache.prefetcher.num_hwpf_issued          898                       # number of hwpf issued
system.l2cache.prefetcher.pfBufferHit               0                       # number of redundant prefetches already in prefetch queue
system.l2cache.prefetcher.pfIdentified            898                       # number of prefetch candidates identified
system.l2cache.prefetcher.pfInCache                 0                       # number of redundant prefetches already in cache/mshr dropped
system.l2cache.prefetcher.pfRemovedFull             0                       # number of prefetches dropped due to prefetch queue size
system.l2cache.prefetcher.pfSpanPage              150                       # number of prefetches that crossed the page
system.membus.snoop_filter.hit_multi_requests            0                       # Number of requests hitting in the snoop filter with multiple (>1) holders of the requested data.
system.membus.snoop_filter.hit_multi_snoops            0                       # Number of snoops hitting in the snoop filter with multiple (>1) holders of the requested data.
system.membus.snoop_filter.hit_single_requests        10396                       # Number of requests hitting in the snoop filter with a single holder of the requested data.
system.membus.snoop_filter.hit_single_snoops            0                       # Number of snoops hitting in the snoop filter with a single holder of the requested data.
system.membus.snoop_filter.tot_requests         24913                       # Total number of requests made to the snoop filter.
system.membus.snoop_filter.tot_snoops               0                       # Total number of snoops made to the snoop filter.
system.membus.pwrStateResidencyTicks::UNDEFINED   1272143200                       # Cumulative time (in ticks) in various power states
system.membus.trans_dist::ReadResp              12664                       # Transaction distribution
system.membus.trans_dist::WritebackDirty         1427                       # Transaction distribution
system.membus.trans_dist::CleanEvict             8969                       # Transaction distribution
system.membus.trans_dist::ReadExReq              1852                       # Transaction distribution
system.membus.trans_dist::ReadExResp             1852                       # Transaction distribution
system.membus.trans_dist::ReadSharedReq         12665                       # Transaction distribution
system.membus.pkt_count_system.l2cache.mem_side::system.mem_ctrl.port        39429                       # Packet count per connected master and slave (bytes)
system.membus.pkt_count_system.l2cache.mem_side::total        39429                       # Packet count per connected master and slave (bytes)
system.membus.pkt_count::total                  39429                       # Packet count per connected master and slave (bytes)
system.membus.pkt_size_system.l2cache.mem_side::system.mem_ctrl.port      1020352                       # Cumulative packet size per connected master and slave (bytes)
system.membus.pkt_size_system.l2cache.mem_side::total      1020352                       # Cumulative packet size per connected master and slave (bytes)
system.membus.pkt_size::total                 1020352                       # Cumulative packet size per connected master and slave (bytes)
system.membus.snoops                                0                       # Total snoops (count)
system.membus.snoopTraffic                          0                       # Total snoop traffic (bytes)
system.membus.snoop_fanout::samples             14517                       # Request fanout histogram
system.membus.snoop_fanout::mean                    0                       # Request fanout histogram
system.membus.snoop_fanout::stdev                   0                       # Request fanout histogram
system.membus.snoop_fanout::underflows              0      0.00%      0.00% # Request fanout histogram
system.membus.snoop_fanout::0                   14517    100.00%    100.00% # Request fanout histogram
system.membus.snoop_fanout::1                       0      0.00%    100.00% # Request fanout histogram
system.membus.snoop_fanout::overflows               0      0.00%    100.00% # Request fanout histogram
system.membus.snoop_fanout::min_value               0                       # Request fanout histogram
system.membus.snoop_fanout::max_value               0                       # Request fanout histogram
system.membus.snoop_fanout::total               14517                       # Request fanout histogram
system.membus.reqLayer2.occupancy            12290939                       # Layer occupancy (ticks)
system.membus.reqLayer2.utilization               1.0                       # Layer utilization (%)
system.membus.respLayer0.occupancy           31469961                       # Layer occupancy (ticks)
system.membus.respLayer0.utilization              2.5                       # Layer utilization (%)
system.l2bus.pwrStateResidencyTicks::UNDEFINED   1272143200                       # Cumulative time (in ticks) in various power states
system.l2bus.trans_dist::ReadResp               18769                       # Transaction distribution
system.l2bus.trans_dist::WritebackDirty          4555                       # Transaction distribution
system.l2bus.trans_dist::CleanEvict             26035                       # Transaction distribution
system.l2bus.trans_dist::HardPFReq               1209                       # Transaction distribution
system.l2bus.trans_dist::ReadExReq               2599                       # Transaction distribution
system.l2bus.trans_dist::ReadExResp              2599                       # Transaction distribution
system.l2bus.trans_dist::ReadSharedReq          18770                       # Transaction distribution
system.l2bus.pkt_count_system.cpu.icache.mem_side::system.l2cache.cpu_side         9550                       # Packet count per connected master and slave (bytes)
system.l2bus.pkt_count_system.cpu.dcache.mem_side::system.l2cache.cpu_side        53273                       # Packet count per connected master and slave (bytes)
system.l2bus.pkt_count::total                   62823                       # Packet count per connected master and slave (bytes)
system.l2bus.pkt_size_system.cpu.icache.mem_side::system.l2cache.cpu_side       209088                       # Cumulative packet size per connected master and slave (bytes)
system.l2bus.pkt_size_system.cpu.dcache.mem_side::system.l2cache.cpu_side      1358528                       # Cumulative packet size per connected master and slave (bytes)
system.l2bus.pkt_size::total                  1567616                       # Cumulative packet size per connected master and slave (bytes)
system.l2bus.snoops                             11713                       # Total snoops (count)
system.l2bus.snoopTraffic                       91456                       # Total snoop traffic (bytes)
system.l2bus.snoop_fanout::samples              33080                       # Request fanout histogram
system.l2bus.snoop_fanout::mean              0.015266                       # Request fanout histogram
system.l2bus.snoop_fanout::stdev             0.122611                       # Request fanout histogram
system.l2bus.snoop_fanout::underflows               0      0.00%      0.00% # Request fanout histogram
system.l2bus.snoop_fanout::0                    32575     98.47%     98.47% # Request fanout histogram
system.l2bus.snoop_fanout::1                      505      1.53%    100.00% # Request fanout histogram
system.l2bus.snoop_fanout::2                        0      0.00%    100.00% # Request fanout histogram
system.l2bus.snoop_fanout::overflows                0      0.00%    100.00% # Request fanout histogram
system.l2bus.snoop_fanout::min_value                0                       # Request fanout histogram
system.l2bus.snoop_fanout::max_value                1                       # Request fanout histogram
system.l2bus.snoop_fanout::total                33080                       # Request fanout histogram
system.l2bus.respLayer1.occupancy            21719199                       # Layer occupancy (ticks)
system.l2bus.respLayer1.utilization               1.7                       # Layer utilization (%)
system.l2bus.reqLayer0.occupancy             20565733                       # Layer occupancy (ticks)
system.l2bus.reqLayer0.utilization                1.6                       # Layer utilization (%)
system.l2bus.respLayer0.occupancy             3924396                       # Layer occupancy (ticks)
system.l2bus.respLayer0.utilization               0.3                       # Layer utilization (%)
system.clk_domain.clock                           400                       # Clock period in ticks
system.clk_domain.voltage_domain.voltage            1                       # Voltage in Volts
system.cpu.pwrStateResidencyTicks::ON      1272143200                       # Cumulative time (in ticks) in various power states
system.cpu.icache.pwrStateResidencyTicks::UNDEFINED   1272143200                       # Cumulative time (in ticks) in various power states
system.cpu.icache.demand_hits::.cpu.inst       312022                       # number of demand (read+write) hits
system.cpu.icache.demand_hits::total           312022                       # number of demand (read+write) hits
system.cpu.icache.overall_hits::.cpu.inst       312022                       # number of overall hits
system.cpu.icache.overall_hits::total          312022                       # number of overall hits
system.cpu.icache.demand_misses::.cpu.inst         4009                       # number of demand (read+write) misses
system.cpu.icache.demand_misses::total           4009                       # number of demand (read+write) misses
system.cpu.icache.overall_misses::.cpu.inst         4009                       # number of overall misses
system.cpu.icache.overall_misses::total          4009                       # number of overall misses
system.cpu.icache.demand_miss_latency::.cpu.inst    181163199                       # number of demand (read+write) miss cycles
system.cpu.icache.demand_miss_latency::total    181163199                       # number of demand (read+write) miss cycles
system.cpu.icache.overall_miss_latency::.cpu.inst    181163199                       # number of overall miss cycles
system.cpu.icache.overall_miss_latency::total    181163199                       # number of overall miss cycles
system.cpu.icache.demand_accesses::.cpu.inst       316031                       # number of demand (read+write) accesses
system.cpu.icache.demand_accesses::total       316031                       # number of demand (read+write) accesses
system.cpu.icache.overall_accesses::.cpu.inst       316031                       # number of overall (read+write) accesses
system.cpu.icache.overall_accesses::total       316031                       # number of overall (read+write) accesses
system.cpu.icache.demand_miss_rate::.cpu.inst     0.012685                       # miss rate for demand accesses
system.cpu.icache.demand_miss_rate::total     0.012685                       # miss rate for demand accesses
system.cpu.icache.overall_miss_rate::.cpu.inst     0.012685                       # miss rate for overall accesses
system.cpu.icache.overall_miss_rate::total     0.012685                       # miss rate for overall accesses
system.cpu.icache.demand_avg_miss_latency::.cpu.inst 45189.124221                       # average overall miss latency
system.cpu.icache.demand_avg_miss_latency::total 45189.124221                       # average overall miss latency
system.cpu.icache.overall_avg_miss_latency::.cpu.inst 45189.124221                       # average overall miss latency
system.cpu.icache.overall_avg_miss_latency::total 45189.124221                       # average overall miss latency
system.cpu.icache.blocked_cycles::no_mshrs          175                       # number of cycles access was blocked
system.cpu.icache.blocked_cycles::no_targets            0                       # number of cycles access was blocked
system.cpu.icache.blocked::no_mshrs                 6                       # number of cycles access was blocked
system.cpu.icache.blocked::no_targets               0                       # number of cycles access was blocked
system.cpu.icache.avg_blocked_cycles::no_mshrs    29.166667                       # average number of cycles each access was blocked
system.cpu.icache.avg_blocked_cycles::no_targets          nan                       # average number of cycles each access was blocked
system.cpu.icache.demand_mshr_hits::.cpu.inst          739                       # number of demand (read+write) MSHR hits
system.cpu.icache.demand_mshr_hits::total          739                       # number of demand (read+write) MSHR hits
system.cpu.icache.overall_mshr_hits::.cpu.inst          739                       # number of overall MSHR hits
system.cpu.icache.overall_mshr_hits::total          739                       # number of overall MSHR hits
system.cpu.icache.demand_mshr_misses::.cpu.inst         3270                       # number of demand (read+write) MSHR misses
system.cpu.icache.demand_mshr_misses::total         3270                       # number of demand (read+write) MSHR misses
system.cpu.icache.overall_mshr_misses::.cpu.inst         3270                       # number of overall MSHR misses
system.cpu.icache.overall_mshr_misses::total         3270                       # number of overall MSHR misses
system.cpu.icache.demand_mshr_miss_latency::.cpu.inst    146472800                       # number of demand (read+write) MSHR miss cycles
system.cpu.icache.demand_mshr_miss_latency::total    146472800                       # number of demand (read+write) MSHR miss cycles
system.cpu.icache.overall_mshr_miss_latency::.cpu.inst    146472800                       # number of overall MSHR miss cycles
system.cpu.icache.overall_mshr_miss_latency::total    146472800                       # number of overall MSHR miss cycles
system.cpu.icache.demand_mshr_miss_rate::.cpu.inst     0.010347                       # mshr miss rate for demand accesses
system.cpu.icache.demand_mshr_miss_rate::total     0.010347                       # mshr miss rate for demand accesses
system.cpu.icache.overall_mshr_miss_rate::.cpu.inst     0.010347                       # mshr miss rate for overall accesses
system.cpu.icache.overall_mshr_miss_rate::total     0.010347                       # mshr miss rate for overall accesses
system.cpu.icache.demand_avg_mshr_miss_latency::.cpu.inst 44792.905199                       # average overall mshr miss latency
system.cpu.icache.demand_avg_mshr_miss_latency::total 44792.905199                       # average overall mshr miss latency
system.cpu.icache.overall_avg_mshr_miss_latency::.cpu.inst 44792.905199                       # average overall mshr miss latency
system.cpu.icache.overall_avg_mshr_miss_latency::total 44792.905199                       # average overall mshr miss latency
system.cpu.icache.replacements                   3013                       # number of replacements
system.cpu.icache.ReadReq_hits::.cpu.inst       312022                       # number of ReadReq hits
system.cpu.icache.ReadReq_hits::total          312022                       # number of ReadReq hits
system.cpu.icache.ReadReq_misses::.cpu.inst         4009                       # number of ReadReq misses
system.cpu.icache.ReadReq_misses::total          4009                       # number of ReadReq misses
system.cpu.icache.ReadReq_miss_latency::.cpu.inst    181163199                       # number of ReadReq miss cycles
system.cpu.icache.ReadReq_miss_latency::total    181163199                       # number of ReadReq miss cycles
system.cpu.icache.ReadReq_accesses::.cpu.inst       316031                       # number of ReadReq accesses(hits+misses)
system.cpu.icache.ReadReq_accesses::total       316031                       # number of ReadReq accesses(hits+misses)
system.cpu.icache.ReadReq_miss_rate::.cpu.inst     0.012685                       # miss rate for ReadReq accesses
system.cpu.icache.ReadReq_miss_rate::total     0.012685                       # miss rate for ReadReq accesses
system.cpu.icache.ReadReq_avg_miss_latency::.cpu.inst 45189.124221                       # average ReadReq miss latency
system.cpu.icache.ReadReq_avg_miss_latency::total 45189.124221                       # average ReadReq miss latency
system.cpu.icache.ReadReq_mshr_hits::.cpu.inst          739                       # number of ReadReq MSHR hits
system.cpu.icache.ReadReq_mshr_hits::total          739                       # number of ReadReq MSHR hits
system.cpu.icache.ReadReq_mshr_misses::.cpu.inst         3270                       # number of ReadReq MSHR misses
system.cpu.icache.ReadReq_mshr_misses::total         3270                       # number of ReadReq MSHR misses
system.cpu.icache.ReadReq_mshr_miss_latency::.cpu.inst    146472800                       # number of ReadReq MSHR miss cycles
system.cpu.icache.ReadReq_mshr_miss_latency::total    146472800                       # number of ReadReq MSHR miss cycles
system.cpu.icache.ReadReq_mshr_miss_rate::.cpu.inst     0.010347                       # mshr miss rate for ReadReq accesses
system.cpu.icache.ReadReq_mshr_miss_rate::total     0.010347                       # mshr miss rate for ReadReq accesses
system.cpu.icache.ReadReq_avg_mshr_miss_latency::.cpu.inst 44792.905199                       # average ReadReq mshr miss latency
system.cpu.icache.ReadReq_avg_mshr_miss_latency::total 44792.905199                       # average ReadReq mshr miss latency
system.cpu.icache.prefetcher.pwrStateResidencyTicks::UNDEFINED   1272143200                       # Cumulative time (in ticks) in various power states
system.cpu.icache.tags.pwrStateResidencyTicks::UNDEFINED   1272143200                       # Cumulative time (in ticks) in various power states
system.cpu.icache.tags.tagsinuse           253.839058                       # Cycle average of tags in use
system.cpu.icache.tags.total_refs              277091                       # Total number of references to valid blocks.
system.cpu.icache.tags.sampled_refs              3013                       # Sample count of references to valid blocks.
system.cpu.icache.tags.avg_refs             91.965151                       # Average number of references to valid blocks.
system.cpu.icache.tags.warmup_cycle             66400                       # Cycle when the warmup percentage was hit.
system.cpu.icache.tags.occ_blocks::.cpu.inst   253.839058                       # Average occupied blocks per requestor
system.cpu.icache.tags.occ_percent::.cpu.inst     0.991559                       # Average percentage of cache occupancy
system.cpu.icache.tags.occ_percent::total     0.991559                       # Average percentage of cache occupancy
system.cpu.icache.tags.occ_task_id_blocks::1024          256                       # Occupied blocks per task id
system.cpu.icache.tags.age_task_id_blocks_1024::0           29                       # Occupied blocks per task id
system.cpu.icache.tags.age_task_id_blocks_1024::1           25                       # Occupied blocks per task id
system.cpu.icache.tags.age_task_id_blocks_1024::2          197                       # Occupied blocks per task id
system.cpu.icache.tags.age_task_id_blocks_1024::3            5                       # Occupied blocks per task id
system.cpu.icache.tags.occ_task_id_percent::1024            1                       # Percentage of cache occupancy per task id
system.cpu.icache.tags.tag_accesses            635331                       # Number of tag accesses
system.cpu.icache.tags.data_accesses           635331                       # Number of data accesses
system.cpu.dtb.walker.pwrStateResidencyTicks::UNDEFINED   1272143200                       # Cumulative time (in ticks) in various power states
system.cpu.interrupts.clk_domain.clock           6400                       # Clock period in ticks
system.cpu.itb.walker.pwrStateResidencyTicks::UNDEFINED   1272143200                       # Cumulative time (in ticks) in various power states
system.cpu.dcache.pwrStateResidencyTicks::UNDEFINED   1272143200                       # Cumulative time (in ticks) in various power states
system.cpu.dcache.demand_hits::.cpu.data       848064                       # number of demand (read+write) hits
system.cpu.dcache.demand_hits::total           848064                       # number of demand (read+write) hits
system.cpu.dcache.overall_hits::.cpu.data       851651                       # number of overall hits
system.cpu.dcache.overall_hits::total          851651                       # number of overall hits
system.cpu.dcache.demand_misses::.cpu.data        37990                       # number of demand (read+write) misses
system.cpu.dcache.demand_misses::total          37990                       # number of demand (read+write) misses
system.cpu.dcache.overall_misses::.cpu.data        37993                       # number of overall misses
system.cpu.dcache.overall_misses::total         37993                       # number of overall misses
system.cpu.dcache.demand_miss_latency::.cpu.data   1850150400                       # number of demand (read+write) miss cycles
system.cpu.dcache.demand_miss_latency::total   1850150400                       # number of demand (read+write) miss cycles
system.cpu.dcache.overall_miss_latency::.cpu.data   1850150400                       # number of overall miss cycles
system.cpu.dcache.overall_miss_latency::total   1850150400                       # number of overall miss cycles
system.cpu.dcache.demand_accesses::.cpu.data       886054                       # number of demand (read+write) accesses
system.cpu.dcache.demand_accesses::total       886054                       # number of demand (read+write) accesses
system.cpu.dcache.overall_accesses::.cpu.data       889644                       # number of overall (read+write) accesses
system.cpu.dcache.overall_accesses::total       889644                       # number of overall (read+write) accesses
system.cpu.dcache.demand_miss_rate::.cpu.data     0.042875                       # miss rate for demand accesses
system.cpu.dcache.demand_miss_rate::total     0.042875                       # miss rate for demand accesses
system.cpu.dcache.overall_miss_rate::.cpu.data     0.042706                       # miss rate for overall accesses
system.cpu.dcache.overall_miss_rate::total     0.042706                       # miss rate for overall accesses
system.cpu.dcache.demand_avg_miss_latency::.cpu.data 48700.984470                       # average overall miss latency
system.cpu.dcache.demand_avg_miss_latency::total 48700.984470                       # average overall miss latency
system.cpu.dcache.overall_avg_miss_latency::.cpu.data 48697.138947                       # average overall miss latency
system.cpu.dcache.overall_avg_miss_latency::total 48697.138947                       # average overall miss latency
system.cpu.dcache.blocked_cycles::no_mshrs        31353                       # number of cycles access was blocked
system.cpu.dcache.blocked_cycles::no_targets          138                       # number of cycles access was blocked
system.cpu.dcache.blocked::no_mshrs               773                       # number of cycles access was blocked
system.cpu.dcache.blocked::no_targets               1                       # number of cycles access was blocked
system.cpu.dcache.avg_blocked_cycles::no_mshrs    40.560155                       # average number of cycles each access was blocked
system.cpu.dcache.avg_blocked_cycles::no_targets          138                       # average number of cycles each access was blocked
system.cpu.dcache.unused_prefetches              1858                       # number of HardPF blocks evicted w/o reference
system.cpu.dcache.writebacks::.writebacks         3128                       # number of writebacks
system.cpu.dcache.writebacks::total              3128                       # number of writebacks
system.cpu.dcache.demand_mshr_hits::.cpu.data        24429                       # number of demand (read+write) MSHR hits
system.cpu.dcache.demand_mshr_hits::total        24429                       # number of demand (read+write) MSHR hits
system.cpu.dcache.overall_mshr_hits::.cpu.data        24429                       # number of overall MSHR hits
system.cpu.dcache.overall_mshr_hits::total        24429                       # number of overall MSHR hits
system.cpu.dcache.demand_mshr_misses::.cpu.data        13561                       # number of demand (read+write) MSHR misses
system.cpu.dcache.demand_mshr_misses::total        13561                       # number of demand (read+write) MSHR misses
system.cpu.dcache.overall_mshr_misses::.cpu.data        13563                       # number of overall MSHR misses
system.cpu.dcache.overall_mshr_misses::.cpu.dcache.prefetcher         4536                       # number of overall MSHR misses
system.cpu.dcache.overall_mshr_misses::total        18099                       # number of overall MSHR misses
system.cpu.dcache.demand_mshr_miss_latency::.cpu.data    632040800                       # number of demand (read+write) MSHR miss cycles
system.cpu.dcache.demand_mshr_miss_latency::total    632040800                       # number of demand (read+write) MSHR miss cycles
system.cpu.dcache.overall_mshr_miss_latency::.cpu.data    632138000                       # number of overall MSHR miss cycles
system.cpu.dcache.overall_mshr_miss_latency::.cpu.dcache.prefetcher    256015598                       # number of overall MSHR miss cycles
system.cpu.dcache.overall_mshr_miss_latency::total    888153598                       # number of overall MSHR miss cycles
system.cpu.dcache.demand_mshr_miss_rate::.cpu.data     0.015305                       # mshr miss rate for demand accesses
system.cpu.dcache.demand_mshr_miss_rate::total     0.015305                       # mshr miss rate for demand accesses
system.cpu.dcache.overall_mshr_miss_rate::.cpu.data     0.015245                       # mshr miss rate for overall accesses
system.cpu.dcache.overall_mshr_miss_rate::.cpu.dcache.prefetcher          inf                       # mshr miss rate for overall accesses
system.cpu.dcache.overall_mshr_miss_rate::total     0.020344                       # mshr miss rate for overall accesses
system.cpu.dcache.demand_avg_mshr_miss_latency::.cpu.data 46607.241354                       # average overall mshr miss latency
system.cpu.dcache.demand_avg_mshr_miss_latency::total 46607.241354                       # average overall mshr miss latency
system.cpu.dcache.overall_avg_mshr_miss_latency::.cpu.data 46607.535206                       # average overall mshr miss latency
system.cpu.dcache.overall_avg_mshr_miss_latency::.cpu.dcache.prefetcher 56440.828483                       # average overall mshr miss latency
system.cpu.dcache.overall_avg_mshr_miss_latency::total 49071.970717                       # average overall mshr miss latency
system.cpu.dcache.replacements                  17075                       # number of replacements
system.cpu.dcache.ReadReq_hits::.cpu.data       634021                       # number of ReadReq hits
system.cpu.dcache.ReadReq_hits::total          634021                       # number of ReadReq hits
system.cpu.dcache.ReadReq_misses::.cpu.data        35353                       # number of ReadReq misses
system.cpu.dcache.ReadReq_misses::total         35353                       # number of ReadReq misses
system.cpu.dcache.ReadReq_miss_latency::.cpu.data   1708216400                       # number of ReadReq miss cycles
system.cpu.dcache.ReadReq_miss_latency::total   1708216400                       # number of ReadReq miss cycles
system.cpu.dcache.ReadReq_accesses::.cpu.data       669374                       # number of ReadReq accesses(hits+misses)
system.cpu.dcache.ReadReq_accesses::total       669374                       # number of ReadReq accesses(hits+misses)
system.cpu.dcache.ReadReq_miss_rate::.cpu.data     0.052815                       # miss rate for ReadReq accesses
system.cpu.dcache.ReadReq_miss_rate::total     0.052815                       # miss rate for ReadReq accesses
system.cpu.dcache.ReadReq_avg_miss_latency::.cpu.data 48318.852714                       # average ReadReq miss latency
system.cpu.dcache.ReadReq_avg_miss_latency::total 48318.852714                       # average ReadReq miss latency
system.cpu.dcache.ReadReq_mshr_hits::.cpu.data        24390                       # number of ReadReq MSHR hits
system.cpu.dcache.ReadReq_mshr_hits::total        24390                       # number of ReadReq MSHR hits
system.cpu.dcache.ReadReq_mshr_misses::.cpu.data        10963                       # number of ReadReq MSHR misses
system.cpu.dcache.ReadReq_mshr_misses::total        10963                       # number of ReadReq MSHR misses
system.cpu.dcache.ReadReq_mshr_miss_latency::.cpu.data    493499200                       # number of ReadReq MSHR miss cycles
system.cpu.dcache.ReadReq_mshr_miss_latency::total    493499200                       # number of ReadReq MSHR miss cycles
system.cpu.dcache.ReadReq_mshr_miss_rate::.cpu.data     0.016378                       # mshr miss rate for ReadReq accesses
system.cpu.dcache.ReadReq_mshr_miss_rate::total     0.016378                       # mshr miss rate for ReadReq accesses
system.cpu.dcache.ReadReq_avg_mshr_miss_latency::.cpu.data 45014.977652                       # average ReadReq mshr miss latency
system.cpu.dcache.ReadReq_avg_mshr_miss_latency::total 45014.977652                       # average ReadReq mshr miss latency
system.cpu.dcache.WriteReq_hits::.cpu.data       214043                       # number of WriteReq hits
system.cpu.dcache.WriteReq_hits::total         214043                       # number of WriteReq hits
system.cpu.dcache.WriteReq_misses::.cpu.data         2637                       # number of WriteReq misses
system.cpu.dcache.WriteReq_misses::total         2637                       # number of WriteReq misses
system.cpu.dcache.WriteReq_miss_latency::.cpu.data    141934000                       # number of WriteReq miss cycles
system.cpu.dcache.WriteReq_miss_latency::total    141934000                       # number of WriteReq miss cycles
system.cpu.dcache.WriteReq_accesses::.cpu.data       216680                       # number of WriteReq accesses(hits+misses)
system.cpu.dcache.WriteReq_accesses::total       216680                       # number of WriteReq accesses(hits+misses)
system.cpu.dcache.WriteReq_miss_rate::.cpu.data     0.012170                       # miss rate for WriteReq accesses
system.cpu.dcache.WriteReq_miss_rate::total     0.012170                       # miss rate for WriteReq accesses
system.cpu.dcache.WriteReq_avg_miss_latency::.cpu.data 53824.042473                       # average WriteReq miss latency
system.cpu.dcache.WriteReq_avg_miss_latency::total 53824.042473                       # average WriteReq miss latency
system.cpu.dcache.WriteReq_mshr_hits::.cpu.data           39                       # number of WriteReq MSHR hits
system.cpu.dcache.WriteReq_mshr_hits::total           39                       # number of WriteReq MSHR hits
system.cpu.dcache.WriteReq_mshr_misses::.cpu.data         2598                       # number of WriteReq MSHR misses
system.cpu.dcache.WriteReq_mshr_misses::total         2598                       # number of WriteReq MSHR misses
[...]
system.l2cache.overall_mshr_misses::.cpu.inst          147                       # number of overall MSHR misses
system.l2cache.overall_mshr_misses::.cpu.data          123                       # number of overall MSHR misses
system.l2cache.overall_mshr_misses::.cpu.dcache.prefetcher           16                       # number of overall MSHR misses
system.l2cache.overall_mshr_misses::total          286                       # number of overall MSHR misses
system.l2cache.demand_mshr_miss_latency::.cpu.inst      9145200                       # number of demand (read+write) MSHR miss cycles
system.l2cache.demand_mshr_miss_latency::.cpu.data      7750800                       # number of demand (read+write) MSHR miss cycles
system.l2cache.demand_mshr_miss_latency::.cpu.dcache.prefetcher      1111185                       # number of demand (read+write) MSHR miss cycles
system.l2cache.demand_mshr_miss_latency::total     18007185                       # number of demand (read+write) MSHR miss cycles
system.l2cache.overall_mshr_miss_latency::.cpu.inst      9145200                       # number of overall MSHR miss cycles
system.l2cache.overall_mshr_miss_latency::.cpu.data      7750800                       # number of overall MSHR miss cycles
system.l2cache.overall_mshr_miss_latency::.cpu.dcache.prefetcher      1111185                       # number of overall MSHR miss cycles
system.l2cache.overall_mshr_miss_latency::total     18007185                       # number of overall MSHR miss cycles
system.l2cache.demand_mshr_miss_rate::.cpu.inst     0.569767                       # mshr miss rate for demand accesses
system.l2cache.demand_mshr_miss_rate::.cpu.data     0.293556                       # mshr miss rate for demand accesses
system.l2cache.demand_mshr_miss_rate::.cpu.dcache.prefetcher     0.118519                       # mshr miss rate for demand accesses
system.l2cache.demand_mshr_miss_rate::total     0.352217                       # mshr miss rate for demand accesses
system.l2cache.overall_mshr_miss_rate::.cpu.inst     0.569767                       # mshr miss rate for overall accesses
system.l2cache.overall_mshr_miss_rate::.cpu.data     0.293556                       # mshr miss rate for overall accesses
system.l2cache.overall_mshr_miss_rate::.cpu.dcache.prefetcher     0.118519                       # mshr miss rate for overall accesses
system.l2cache.overall_mshr_miss_rate::total     0.352217                       # mshr miss rate for overall accesses
system.l2cache.demand_avg_mshr_miss_latency::.cpu.inst 62212.244898                       # average overall mshr miss latency
system.l2cache.demand_avg_mshr_miss_latency::.cpu.data 63014.634146                       # average overall mshr miss latency
system.l2cache.demand_avg_mshr_miss_latency::.cpu.dcache.prefetcher 69449.062500                       # average overall mshr miss latency
system.l2cache.demand_avg_mshr_miss_latency::total 62962.185315                       # average overall mshr miss latency
system.l2cache.overall_avg_mshr_miss_latency::.cpu.inst 62212.244898                       # average overall mshr miss latency
system.l2cache.overall_avg_mshr_miss_latency::.cpu.data 63014.634146                       # average overall mshr miss latency
system.l2cache.overall_avg_mshr_miss_latency::.cpu.dcache.prefetcher 69449.062500                       # average overall mshr miss latency
system.l2cache.overall_avg_mshr_miss_latency::total 62962.185315                       # average overall mshr miss latency
system.l2cache.replacements                       288                       # number of replacements
system.l2cache.WritebackDirty_hits::.writebacks          510                       # number of WritebackDirty hits
system.l2cache.WritebackDirty_hits::total          510                       # number of WritebackDirty hits
system.l2cache.WritebackDirty_accesses::.writebacks          510                       # number of WritebackDirty accesses(hits+misses)
system.l2cache.WritebackDirty_accesses::total          510                       # number of WritebackDirty accesses(hits+misses)
system.l2cache.CleanEvict_mshr_misses::.writebacks           19                       # number of CleanEvict MSHR misses
system.l2cache.CleanEvict_mshr_misses::total           19                       # number of CleanEvict MSHR misses
system.l2cache.CleanEvict_mshr_miss_rate::.writebacks          inf                       # mshr miss rate for CleanEvict accesses
system.l2cache.CleanEvict_mshr_miss_rate::total          inf                       # mshr miss rate for CleanEvict accesses
system.l2cache.UpgradeReq_hits::.cpu.data            1                       # number of UpgradeReq hits
system.l2cache.UpgradeReq_hits::total               1                       # number of UpgradeReq hits
system.l2cache.UpgradeReq_accesses::.cpu.data            1                       # number of UpgradeReq accesses(hits+misses)
system.l2cache.UpgradeReq_accesses::total            1                       # number of UpgradeReq accesses(hits+misses)
system.l2cache.ReadExReq_hits::.cpu.data            3                       # number of ReadExReq hits
system.l2cache.ReadExReq_hits::total                3                       # number of ReadExReq hits
system.l2cache.ReadExReq_misses::.cpu.data            6                       # number of ReadExReq misses
system.l2cache.ReadExReq_misses::total              6                       # number of ReadExReq misses
system.l2cache.ReadExReq_miss_latency::.cpu.data       381600                       # number of ReadExReq miss cycles
system.l2cache.ReadExReq_miss_latency::total       381600                       # number of ReadExReq miss cycles
system.l2cache.ReadExReq_accesses::.cpu.data            9                       # number of ReadExReq accesses(hits+misses)
system.l2cache.ReadExReq_accesses::total            9                       # number of ReadExReq accesses(hits+misses)
system.l2cache.ReadExReq_miss_rate::.cpu.data     0.666667                       # miss rate for ReadExReq accesses
system.l2cache.ReadExReq_miss_rate::total     0.666667                       # miss rate for ReadExReq accesses
system.l2cache.ReadExReq_avg_miss_latency::.cpu.data        63600                       # average ReadExReq miss latency
system.l2cache.ReadExReq_avg_miss_latency::total        63600                       # average ReadExReq miss latency
system.l2cache.ReadExReq_mshr_misses::.cpu.data            6                       # number of ReadExReq MSHR misses
system.l2cache.ReadExReq_mshr_misses::total            6                       # number of ReadExReq MSHR misses
system.l2cache.ReadExReq_mshr_miss_latency::.cpu.data       333600                       # number of ReadExReq MSHR miss cycles
system.l2cache.ReadExReq_mshr_miss_latency::total       333600                       # number of ReadExReq MSHR miss cycles
system.l2cache.ReadExReq_mshr_miss_rate::.cpu.data     0.666667                       # mshr miss rate for ReadExReq accesses
system.l2cache.ReadExReq_mshr_miss_rate::total     0.666667                       # mshr miss rate for ReadExReq accesses
system.l2cache.ReadExReq_avg_mshr_miss_latency::.cpu.data        55600                       # average ReadExReq mshr miss latency
system.l2cache.ReadExReq_avg_mshr_miss_latency::total        55600                       # average ReadExReq mshr miss latency
system.l2cache.ReadSharedReq_hits::.cpu.inst          111                       # number of ReadSharedReq hits
system.l2cache.ReadSharedReq_hits::.cpu.data          293                       # number of ReadSharedReq hits
system.l2cache.ReadSharedReq_hits::.cpu.dcache.prefetcher          119                       # number of ReadSharedReq hits
system.l2cache.ReadSharedReq_hits::total          523                       # number of ReadSharedReq hits
system.l2cache.ReadSharedReq_misses::.cpu.inst          147                       # number of ReadSharedReq misses
system.l2cache.ReadSharedReq_misses::.cpu.data          117                       # number of ReadSharedReq misses
system.l2cache.ReadSharedReq_misses::.cpu.dcache.prefetcher           16                       # number of ReadSharedReq misses
system.l2cache.ReadSharedReq_misses::total          280                       # number of ReadSharedReq misses
system.l2cache.ReadSharedReq_miss_latency::.cpu.inst     10321200                       # number of ReadSharedReq miss cycles
system.l2cache.ReadSharedReq_miss_latency::.cpu.data      8353200                       # number of ReadSharedReq miss cycles
system.l2cache.ReadSharedReq_miss_latency::.cpu.dcache.prefetcher      1239185                       # number of ReadSharedReq miss cycles
system.l2cache.ReadSharedReq_miss_latency::total     19913585                       # number of ReadSharedReq miss cycles
system.l2cache.ReadSharedReq_accesses::.cpu.inst          258                       # number of ReadSharedReq accesses(hits+misses)
system.l2cache.ReadSharedReq_accesses::.cpu.data          410                       # number of ReadSharedReq accesses(hits+misses)
system.l2cache.ReadSharedReq_accesses::.cpu.dcache.prefetcher          135                       # number of ReadSharedReq accesses(hits+misses)
system.l2cache.ReadSharedReq_accesses::total          803                       # number of ReadSharedReq accesses(hits+misses)
system.l2cache.ReadSharedReq_miss_rate::.cpu.inst     0.569767                       # miss rate for ReadSharedReq accesses
system.l2cache.ReadSharedReq_miss_rate::.cpu.data     0.285366                       # miss rate for ReadSharedReq accesses
system.l2cache.ReadSharedReq_miss_rate::.cpu.dcache.prefetcher     0.118519                       # miss rate for ReadSharedReq accesses
system.l2cache.ReadSharedReq_miss_rate::total     0.348692                       # miss rate for ReadSharedReq accesses
system.l2cache.ReadSharedReq_avg_miss_latency::.cpu.inst 70212.244898                       # average ReadSharedReq miss latency
system.l2cache.ReadSharedReq_avg_miss_latency::.cpu.data 71394.871795                       # average ReadSharedReq miss latency
system.l2cache.ReadSharedReq_avg_miss_latency::.cpu.dcache.prefetcher 77449.062500                       # average ReadSharedReq miss latency
system.l2cache.ReadSharedReq_avg_miss_latency::total 71119.946429                       # average ReadSharedReq miss latency
system.l2cache.ReadSharedReq_mshr_misses::.cpu.inst          147                       # number of ReadSharedReq MSHR misses
system.l2cache.ReadSharedReq_mshr_misses::.cpu.data          117                       # number of ReadSharedReq MSHR misses
system.l2cache.ReadSharedReq_mshr_misses::.cpu.dcache.prefetcher           16                       # number of ReadSharedReq MSHR misses
system.l2cache.ReadSharedReq_mshr_misses::total          280                       # number of ReadSharedReq MSHR misses
system.l2cache.ReadSharedReq_mshr_miss_latency::.cpu.inst      9145200                       # number of ReadSharedReq MSHR miss cycles
system.l2cache.ReadSharedReq_mshr_miss_latency::.cpu.data      7417200                       # number of ReadSharedReq MSHR miss cycles
system.l2cache.ReadSharedReq_mshr_miss_latency::.cpu.dcache.prefetcher      1111185                       # number of ReadSharedReq MSHR miss cycles
system.l2cache.ReadSharedReq_mshr_miss_latency::total     17673585                       # number of ReadSharedReq MSHR miss cycles
system.l2cache.ReadSharedReq_mshr_miss_rate::.cpu.inst     0.569767                       # mshr miss rate for ReadSharedReq accesses
system.l2cache.ReadSharedReq_mshr_miss_rate::.cpu.data     0.285366                       # mshr miss rate for ReadSharedReq accesses
system.l2cache.ReadSharedReq_mshr_miss_rate::.cpu.dcache.prefetcher     0.118519                       # mshr miss rate for ReadSharedReq accesses
system.l2cache.ReadSharedReq_mshr_miss_rate::total     0.348692                       # mshr miss rate for ReadSharedReq accesses
system.l2cache.ReadSharedReq_avg_mshr_miss_latency::.cpu.inst 62212.244898                       # average ReadSharedReq mshr miss latency
system.l2cache.ReadSharedReq_avg_mshr_miss_latency::.cpu.data 63394.871795                       # average ReadSharedReq mshr miss latency
system.l2cache.ReadSharedReq_avg_mshr_miss_latency::.cpu.dcache.prefetcher 69449.062500                       # average ReadSharedReq mshr miss latency
system.l2cache.ReadSharedReq_avg_mshr_miss_latency::total 63119.946429                       # average ReadSharedReq mshr miss latency
system.l2cache.prefetcher.pwrStateResidencyTicks::UNDEFINED     24819200                       # Cumulative time (in ticks) in various power states
system.l2cache.tags.pwrStateResidencyTicks::UNDEFINED     24819200                       # Cumulative time (in ticks) in various power states
system.l2cache.tags.tagsinuse                    4096                       # Cycle average of tags in use
system.l2cache.tags.total_refs                1494926                       # Total number of references to valid blocks.
system.l2cache.tags.sampled_refs                 4384                       # Sample count of references to valid blocks.
system.l2cache.tags.avg_refs               340.995894                       # Average number of references to valid blocks.
system.l2cache.tags.warmup_cycle                    0                       # Cycle when the warmup percentage was hit.
system.l2cache.tags.occ_blocks::.writebacks    62.560421                       # Average occupied blocks per requestor
system.l2cache.tags.occ_blocks::.cpu.inst   600.135608                       # Average occupied blocks per requestor
system.l2cache.tags.occ_blocks::.cpu.data  2211.255398                       # Average occupied blocks per requestor
system.l2cache.tags.occ_blocks::.cpu.dcache.prefetcher   719.145822                       # Average occupied blocks per requestor
system.l2cache.tags.occ_blocks::.l2cache.prefetcher   502.902752                       # Average occupied blocks per requestor
system.l2cache.tags.occ_percent::.writebacks     0.015274                       # Average percentage of cache occupancy
system.l2cache.tags.occ_percent::.cpu.inst     0.146517                       # Average percentage of cache occupancy
system.l2cache.tags.occ_percent::.cpu.data     0.539857                       # Average percentage of cache occupancy
system.l2cache.tags.occ_percent::.cpu.dcache.prefetcher     0.175573                       # Average percentage of cache occupancy
system.l2cache.tags.occ_percent::.l2cache.prefetcher     0.122779                       # Average percentage of cache occupancy
system.l2cache.tags.occ_percent::total       1.000000                       # Average percentage of cache occupancy
system.l2cache.tags.occ_task_id_blocks::1022         1194                       # Occupied blocks per task id
system.l2cache.tags.occ_task_id_blocks::1024         2902                       # Occupied blocks per task id
system.l2cache.tags.age_task_id_blocks_1022::0           14                       # Occupied blocks per task id
system.l2cache.tags.age_task_id_blocks_1022::1            8                       # Occupied blocks per task id
system.l2cache.tags.age_task_id_blocks_1022::3            2                       # Occupied blocks per task id
system.l2cache.tags.age_task_id_blocks_1022::4         1170                       # Occupied blocks per task id
system.l2cache.tags.age_task_id_blocks_1024::0          206                       # Occupied blocks per task id
system.l2cache.tags.age_task_id_blocks_1024::1          105                       # Occupied blocks per task id
system.l2cache.tags.age_task_id_blocks_1024::3           11                       # Occupied blocks per task id
system.l2cache.tags.age_task_id_blocks_1024::4         2580                       # Occupied blocks per task id
system.l2cache.tags.occ_task_id_percent::1022     0.291504                       # Percentage of cache occupancy per task id
system.l2cache.tags.occ_task_id_percent::1024     0.708496                       # Percentage of cache occupancy per task id
system.l2cache.tags.tag_accesses                13272                       # Number of tag accesses
system.l2cache.tags.data_accesses               13272                       # Number of data accesses
system.mem_ctrl.pwrStateResidencyTicks::UNDEFINED     24819200                       # Cumulative time (in ticks) in various power states
system.mem_ctrl.bytes_read::.cpu.inst            9408                       # Number of bytes read from this memory
system.mem_ctrl.bytes_read::.cpu.data            7872                       # Number of bytes read from this memory
system.mem_ctrl.bytes_read::.cpu.dcache.prefetcher         1024                       # Number of bytes read from this memory
system.mem_ctrl.bytes_read::total               18304                       # Number of bytes read from this memory
system.mem_ctrl.bytes_inst_read::.cpu.inst         9408                       # Number of instructions bytes read from this memory
system.mem_ctrl.bytes_inst_read::total           9408                       # Number of instructions bytes read from this memory
system.mem_ctrl.bytes_written::.writebacks         4608                       # Number of bytes written to this memory
system.mem_ctrl.bytes_written::total             4608                       # Number of bytes written to this memory
system.mem_ctrl.num_reads::.cpu.inst              147                       # Number of read requests responded to by this memory
system.mem_ctrl.num_reads::.cpu.data              123                       # Number of read requests responded to by this memory
system.mem_ctrl.num_reads::.cpu.dcache.prefetcher           16                       # Number of read requests responded to by this memory
system.mem_ctrl.num_reads::total                  286                       # Number of read requests responded to by this memory
system.mem_ctrl.num_writes::.writebacks            72                       # Number of write requests responded to by this memory
system.mem_ctrl.num_writes::total                  72                       # Number of write requests responded to by this memory
system.mem_ctrl.bw_read::.cpu.inst          379061372                       # Total read bandwidth from this memory (bytes/s)
system.mem_ctrl.bw_read::.cpu.data          317173801                       # Total read bandwidth from this memory (bytes/s)
system.mem_ctrl.bw_read::.cpu.dcache.prefetcher     41258381                       # Total read bandwidth from this memory (bytes/s)
system.mem_ctrl.bw_read::total              737493553                       # Total read bandwidth from this memory (bytes/s)
system.mem_ctrl.bw_inst_read::.cpu.inst     379061372                       # Instruction read bandwidth from this memory (bytes/s)
system.mem_ctrl.bw_inst_read::total         379061372                       # Instruction read bandwidth from this memory (bytes/s)
system.mem_ctrl.bw_write::.writebacks       185662713                       # Write bandwidth from this memory (bytes/s)
system.mem_ctrl.bw_write::total             185662713                       # Write bandwidth from this memory (bytes/s)
system.mem_ctrl.bw_total::.writebacks       185662713                       # Total bandwidth to/from this memory (bytes/s)
system.mem_ctrl.bw_total::.cpu.inst         379061372                       # Total bandwidth to/from this memory (bytes/s)
system.mem_ctrl.bw_total::.cpu.data         317173801                       # Total bandwidth to/from this memory (bytes/s)
system.mem_ctrl.bw_total::.cpu.dcache.prefetcher     41258381                       # Total bandwidth to/from this memory (bytes/s)
system.mem_ctrl.bw_total::total             923156266                       # Total bandwidth to/from this memory (bytes/s)

---------- End Simulation Statistics   ----------
