
---------- Begin Simulation Statistics ----------
final_tick                                 1201067200                       # Number of ticks from beginning of simulation (restored from checkpoints and never reset)
host_inst_rate                                 169313                       # Simulator instruction rate (inst/s)
host_mem_usage                                4408880                       # Number of bytes of host memory used
host_op_rate                                   300180                       # Simulator op (including micro ops) rate (op/s)
host_seconds                                    14.05                       # Real time elapsed on the host
host_tick_rate                               85459787                       # Simulator tick rate (ticks/s)
sim_freq                                 1000000000000                       # Frequency of simulated ticks
sim_insts                                     2379543                       # Number of instructions simulated
sim_ops                                       4218781                       # Number of ops (including micro ops) simulated
sim_seconds                                  0.001201                       # Number of seconds simulated
sim_ticks                                  1201067200                       # Number of ticks simulated
system.cpu.branchPred.BTBCorrect                    0                       # Number of correct BTB predictions (this stat may not work properly.
system.cpu.branchPred.BTBHitPct              0.000000                       # BTB Hit Percentage
system.cpu.branchPred.BTBHits                       0                       # Number of BTB hits
system.cpu.branchPred.BTBLookups               504769                       # Number of BTB lookups
system.cpu.branchPred.RASInCorrect                  9                       # Number of incorrect RAS predictions.
system.cpu.branchPred.condIncorrect             24604                       # Number of conditional branches incorrect
system.cpu.branchPred.condPredicted            526758                       # Number of conditional branches predicted
system.cpu.branchPred.indirectHits             276030                       # Number of indirect target hits.
system.cpu.branchPred.indirectLookups          504769                       # Number of indirect predictor lookups.
system.cpu.branchPred.indirectMisses           228739                       # Number of indirect misses.
system.cpu.branchPred.lookups                  569306                       # Number of BP lookups
system.cpu.branchPred.usedRAS                   19569                       # Number of times the RAS was used to get a target.
system.cpu.branchPredindirectMispredicted        12506                       # Number of mispredicted indirect branches.
system.cpu.cc_regfile_reads                   2654525                       # number of cc regfile reads
system.cpu.cc_regfile_writes                  2070081                       # number of cc regfile writes
system.cpu.commit.amos                              0                       # Number of atomic instructions committed
system.cpu.commit.branchMispredicts             24736                       # The number of times a branch was mispredicted
system.cpu.commit.branches                     422653                       # Number of branches committed
system.cpu.commit.bw_lim_events                709469                       # number cycles where commit BW limit reached
system.cpu.commit.commitNonSpecStalls             864                       # The number of times commit has been forced to stall to communicate backwards
system.cpu.commit.commitSquashedInsts          899882                       # The number of squashed insts skipped by commit
system.cpu.commit.committedInsts              2379543                       # Number of instructions committed
system.cpu.commit.committedOps                4218781                       # Number of ops (including micro ops) committed
system.cpu.commit.committed_per_cycle::samples      2588770                       # Number of insts commited each cycle
system.cpu.commit.committed_per_cycle::mean     1.629647                       # Number of insts commited each cycle
system.cpu.commit.committed_per_cycle::stdev     1.739639                       # Number of insts commited each cycle
system.cpu.commit.committed_per_cycle::underflows            0      0.00%      0.00% # Number of insts commited each cycle
system.cpu.commit.committed_per_cycle::0      1219593     47.11%     47.11% # Number of insts commited each cycle
system.cpu.commit.committed_per_cycle::1       205926      7.95%     55.07% # Number of insts commited each cycle
system.cpu.commit.committed_per_cycle::2       186367      7.20%     62.26% # Number of insts commited each cycle
system.cpu.commit.committed_per_cycle::3       267415     10.33%     72.59% # Number of insts commited each cycle
system.cpu.commit.committed_per_cycle::4       709469     27.41%    100.00% # Number of insts commited each cycle
system.cpu.commit.committed_per_cycle::overflows            0      0.00%    100.00% # Number of insts commited each cycle
system.cpu.commit.committed_per_cycle::min_value            0                       # Number of insts commited each cycle
system.cpu.commit.committed_per_cycle::max_value            4                       # Number of insts commited each cycle
system.cpu.commit.committed_per_cycle::total      2588770                       # Number of insts commited each cycle
system.cpu.commit.fp_insts                      75857                       # Number of committed floating point instructions.
system.cpu.commit.function_calls                17723                       # Number of function calls committed.
system.cpu.commit.int_insts                   4162566                       # Number of committed integer instructions.
system.cpu.commit.loads                        601840                       # Number of loads committed
system.cpu.commit.membars                           1                       # Number of memory barriers committed
system.cpu.commit.op_class_0::No_OpClass        20863      0.49%      0.49% # Class of committed instruction
system.cpu.commit.op_class_0::IntAlu          3291678     78.02%     78.52% # Class of committed instruction
system.cpu.commit.op_class_0::IntMult            1053      0.02%     78.54% # Class of committed instruction
system.cpu.commit.op_class_0::IntDiv            38199      0.91%     79.45% # Class of committed instruction
system.cpu.commit.op_class_0::FloatAdd           2996      0.07%     79.52% # Class of committed instruction
system.cpu.commit.op_class_0::FloatCmp              0      0.00%     79.52% # Class of committed instruction
system.cpu.commit.op_class_0::FloatCvt           1376      0.03%     79.55% # Class of committed instruction
system.cpu.commit.op_class_0::FloatMult             0      0.00%     79.55% # Class of committed instruction
system.cpu.commit.op_class_0::FloatMultAcc            0      0.00%     79.55% # Class of committed instruction
system.cpu.commit.op_class_0::FloatDiv              0      0.00%     79.55% # Class of committed instruction
system.cpu.commit.op_class_0::FloatMisc             0      0.00%     79.55% # Class of committed instruction
system.cpu.commit.op_class_0::FloatSqrt             0      0.00%     79.55% # Class of committed instruction
system.cpu.commit.op_class_0::SimdAdd            6346      0.15%     79.70% # Class of committed instruction
system.cpu.commit.op_class_0::SimdAddAcc            0      0.00%     79.70% # Class of committed instruction
system.cpu.commit.op_class_0::SimdAlu           11423      0.27%     79.97% # Class of committed instruction
system.cpu.commit.op_class_0::SimdCmp               0      0.00%     79.97% # Class of committed instruction
system.cpu.commit.op_class_0::SimdCvt           12434      0.29%     80.27% # Class of committed instruction
system.cpu.commit.op_class_0::SimdMisc           6715      0.16%     80.43% # Class of committed instruction
system.cpu.commit.op_class_0::SimdMult              0      0.00%     80.43% # Class of committed instruction
system.cpu.commit.op_class_0::SimdMultAcc            0      0.00%     80.43% # Class of committed instruction
system.cpu.commit.op_class_0::SimdShift          1297      0.03%     80.46% # Class of committed instruction
system.cpu.commit.op_class_0::SimdShiftAcc            0      0.00%     80.46% # Class of committed instruction
system.cpu.commit.op_class_0::SimdDiv               0      0.00%     80.46% # Class of committed instruction
system.cpu.commit.op_class_0::SimdSqrt              0      0.00%     80.46% # Class of committed instruction
system.cpu.commit.op_class_0::SimdFloatAdd            0      0.00%     80.46% # Class of committed instruction
system.cpu.commit.op_class_0::SimdFloatAlu            0      0.00%     80.46% # Class of committed instruction
system.cpu.commit.op_class_0::SimdFloatCmp            0      0.00%     80.46% # Class of committed instruction
system.cpu.commit.op_class_0::SimdFloatCvt            0      0.00%     80.46% # Class of committed instruction
system.cpu.commit.op_class_0::SimdFloatDiv            0      0.00%     80.46% # Class of committed instruction
system.cpu.commit.op_class_0::SimdFloatMisc            0      0.00%     80.46% # Class of committed instruction
system.cpu.commit.op_class_0::SimdFloatMult            0      0.00%     80.46% # Class of committed instruction
system.cpu.commit.op_class_0::SimdFloatMultAcc            0      0.00%     80.46% # Class of committed instruction
system.cpu.commit.op_class_0::SimdFloatSqrt            0      0.00%     80.46% # Class of committed instruction
system.cpu.commit.op_class_0::SimdReduceAdd            0      0.00%     80.46% # Class of committed instruction
system.cpu.commit.op_class_0::SimdReduceAlu            0      0.00%     80.46% # Class of committed instruction
system.cpu.commit.op_class_0::SimdReduceCmp            0      0.00%     80.46% # Class of committed instruction
system.cpu.commit.op_class_0::SimdFloatReduceAdd            0      0.00%     80.46% # Class of committed instruction
system.cpu.commit.op_class_0::SimdFloatReduceCmp            0      0.00%     80.46% # Class of committed instruction
system.cpu.commit.op_class_0::SimdAes               0      0.00%     80.46% # Class of committed instruction
system.cpu.commit.op_class_0::SimdAesMix            0      0.00%     80.46% # Class of committed instruction
system.cpu.commit.op_class_0::SimdSha1Hash            0      0.00%     80.46% # Class of committed instruction
system.cpu.commit.op_class_0::SimdSha1Hash2            0      0.00%     80.46% # Class of committed instruction
system.cpu.commit.op_class_0::SimdSha256Hash            0      0.00%     80.46% # Class of committed instruction
system.cpu.commit.op_class_0::SimdSha256Hash2            0      0.00%     80.46% # Class of committed instruction
system.cpu.commit.op_class_0::SimdShaSigma2            0      0.00%     80.46% # Class of committed instruction
system.cpu.commit.op_class_0::SimdShaSigma3            0      0.00%     80.46% # Class of committed instruction
system.cpu.commit.op_class_0::SimdPredAlu            0      0.00%     80.46% # Class of committed instruction
system.cpu.commit.op_class_0::MemRead          581952     13.79%     94.25% # Class of committed instruction
system.cpu.commit.op_class_0::MemWrite         210062      4.98%     99.23% # Class of committed instruction
system.cpu.commit.op_class_0::FloatMemRead        19888      0.47%     99.70% # Class of committed instruction
system.cpu.commit.op_class_0::FloatMemWrite        12499      0.30%    100.00% # Class of committed instruction
system.cpu.commit.op_class_0::IprAccess             0      0.00%    100.00% # Class of committed instruction
system.cpu.commit.op_class_0::InstPrefetch            0      0.00%    100.00% # Class of committed instruction
system.cpu.commit.op_class_0::total           4218781                       # Class of committed instruction
system.cpu.commit.refs                         824401                       # Number of memory references committed
system.cpu.commit.swp_count                         0                       # Number of s/w prefetches committed
system.cpu.commit.vec_insts                         0                       # Number of committed Vector instructions.
system.cpu.committedInsts                     2379543                       # Number of Instructions Simulated
system.cpu.committedOps                       4218781                       # Number of Ops (including micro ops) Simulated
system.cpu.cpi                               1.261868                       # CPI: Cycles Per Instruction
system.cpu.cpi_total                         1.261868                       # CPI: Total CPI of All Threads
system.cpu.dcache.prefetcher.num_hwpf_issued         8175                       # number of hwpf issued
system.cpu.dcache.prefetcher.pfBufferHit        34133                       # number of redundant prefetches already in prefetch queue
system.cpu.dcache.prefetcher.pfIdentified        48992                       # number of prefetch candidates identified
system.cpu.dcache.prefetcher.pfInCache              0                       # number of redundant prefetches already in cache/mshr dropped
system.cpu.dcache.prefetcher.pfRemovedFull            0                       # number of prefetches dropped due to prefetch queue size
system.cpu.dcache.prefetcher.pfSpanPage          4532                       # number of prefetches that crossed the page
system.cpu.decode.BlockedCycles               1044936                       # Number of cycles decode is blocked
system.cpu.decode.DecodedInsts                5337561                       # Number of instructions handled by decode
system.cpu.decode.IdleCycles                   353472                       # Number of cycles decode is idle
system.cpu.decode.RunCycles                   1323239                       # Number of cycles decode is running
system.cpu.decode.SquashCycles                  24805                       # Number of cycles decode is squashing
system.cpu.decode.UnblockCycles                 87792                       # Number of cycles decode is unblocking
system.cpu.dtb.rdAccesses                      687324                       # TLB accesses on read requests
system.cpu.dtb.rdMisses                          2139                       # TLB misses on read requests
system.cpu.dtb.wrAccesses                      241927                       # TLB accesses on write requests
system.cpu.dtb.wrMisses                           168                       # TLB misses on write requests
system.cpu.fetch.Branches                      569306                       # Number of branches that fetch encountered
system.cpu.fetch.CacheLines                    294691                       # Number of cache lines fetched
system.cpu.fetch.Cycles                       2420041                       # Number of cycles fetch has run and was not squashing or blocked
system.cpu.fetch.IcacheSquashes                  4652                       # Number of outstanding Icache misses that were squashed
system.cpu.fetch.Insts                        3156527                       # Number of instructions fetch has processed
system.cpu.fetch.MiscStallCycles                  159                       # Number of cycles fetch has spent waiting on interrupts, or bad addresses, or out of MSHRs
system.cpu.fetch.PendingQuiesceStallCycles            8                       # Number of stall cycles due to pending quiesce instructions
system.cpu.fetch.PendingTrapStallCycles           894                       # Number of stall cycles due to pending traps
system.cpu.fetch.SquashCycles                   49610                       # Number of cycles fetch has spent squashing
system.cpu.fetch.branchRate                  0.189600                       # Number of branch fetches per cycle
system.cpu.fetch.icacheStallCycles             388337                       # Number of cycles fetch is stalled on an Icache miss
system.cpu.fetch.predictedBranches             295599                       # Number of branches that fetch has predicted taken
system.cpu.fetch.rate                        1.051240                       # Number of inst fetches per cycle
system.cpu.fetch.rateDist::samples            2834244                       # Number of instructions fetched each cycle (Total)
system.cpu.fetch.rateDist::mean              1.981638                       # Number of instructions fetched each cycle (Total)
system.cpu.fetch.rateDist::stdev             1.923524                       # Number of instructions fetched each cycle (Total)
system.cpu.fetch.rateDist::underflows               0      0.00%      0.00% # Number of instructions fetched each cycle (Total)
system.cpu.fetch.rateDist::0                  1304724     46.03%     46.03% # Number of instructions fetched each cycle (Total)
system.cpu.fetch.rateDist::1                    85059      3.00%     49.04% # Number of instructions fetched each cycle (Total)
system.cpu.fetch.rateDist::2                    72532      2.56%     51.59% # Number of instructions fetched each cycle (Total)
system.cpu.fetch.rateDist::3                   101392      3.58%     55.17% # Number of instructions fetched each cycle (Total)
system.cpu.fetch.rateDist::4                  1270537     44.83%    100.00% # Number of instructions fetched each cycle (Total)
system.cpu.fetch.rateDist::overflows                0      0.00%    100.00% # Number of instructions fetched each cycle (Total)
system.cpu.fetch.rateDist::min_value                0                       # Number of instructions fetched each cycle (Total)
system.cpu.fetch.rateDist::max_value                4                       # Number of instructions fetched each cycle (Total)
system.cpu.fetch.rateDist::total              2834244                       # Number of instructions fetched each cycle (Total)
system.cpu.fp_regfile_reads                    124151                       # number of floating regfile reads
system.cpu.fp_regfile_writes                    68772                       # number of floating regfile writes
system.cpu.fuPool.fu_ticks_busy::IntALU(0)    248529200                       # Total ticks fu was busy
system.cpu.fuPool.fu_ticks_busy::IntALU(1)    248529200                       # Total ticks fu was busy
system.cpu.fuPool.fu_ticks_busy::IntALU(2)    248528800                       # Total ticks fu was busy
system.cpu.fuPool.fu_ticks_busy::IntALU(3)    248528800                       # Total ticks fu was busy
system.cpu.fuPool.fu_ticks_busy::IntALU(4)    248528800                       # Total ticks fu was busy
system.cpu.fuPool.fu_ticks_busy::IntALU(5)    248528800                       # Total ticks fu was busy
system.cpu.fuPool.fu_ticks_busy::IntMultDiv(0)      8656000                       # Total ticks fu was busy
system.cpu.fuPool.fu_ticks_busy::IntMultDiv(1)      8655600                       # Total ticks fu was busy
system.cpu.fuPool.fu_ticks_busy::FP_ALU(0)       617200                       # Total ticks fu was busy
system.cpu.fuPool.fu_ticks_busy::FP_ALU(1)       617200                       # Total ticks fu was busy
system.cpu.fuPool.fu_ticks_busy::FP_ALU(2)       616800                       # Total ticks fu was busy
system.cpu.fuPool.fu_ticks_busy::FP_ALU(3)       616800                       # Total ticks fu was busy
system.cpu.fuPool.fu_ticks_busy::FP_MultDiv(0)            0                       # Total ticks fu was busy
system.cpu.fuPool.fu_ticks_busy::FP_MultDiv(1)            0                       # Total ticks fu was busy
system.cpu.fuPool.fu_ticks_busy::SIMD_Unit(0)      4563200                       # Total ticks fu was busy
system.cpu.fuPool.fu_ticks_busy::SIMD_Unit(1)      4646400                       # Total ticks fu was busy
system.cpu.fuPool.fu_ticks_busy::SIMD_Unit(2)      4749600                       # Total ticks fu was busy
system.cpu.fuPool.fu_ticks_busy::SIMD_Unit(3)      4664000                       # Total ticks fu was busy
system.cpu.fuPool.fu_ticks_busy::PredALU(0)            0                       # Total ticks fu was busy
system.cpu.fuPool.fu_ticks_busy::RdWrPort(0)     94454400                       # Total ticks fu was busy
system.cpu.fuPool.fu_ticks_busy::RdWrPort(1)     94412000                       # Total ticks fu was busy
system.cpu.fuPool.fu_ticks_busy::RdWrPort(2)     94400000                       # Total ticks fu was busy
system.cpu.fuPool.fu_ticks_busy::RdWrPort(3)     94423200                       # Total ticks fu was busy
system.cpu.fuPool.fu_ticks_busy::IprPort(0)            0                       # Total ticks fu was busy
system.cpu.fuPool.fu_ticks_busy::total     1907266000                       # Total ticks fu was busy
system.cpu.icache.prefetcher.num_hwpf_issued            0                       # number of hwpf issued
system.cpu.icache.prefetcher.pfBufferHit            0                       # number of redundant prefetches already in prefetch queue
system.cpu.icache.prefetcher.pfIdentified            0                       # number of prefetch candidates identified
system.cpu.icache.prefetcher.pfInCache              0                       # number of redundant prefetches already in cache/mshr dropped
system.cpu.icache.prefetcher.pfRemovedFull            0                       # number of prefetches dropped due to prefetch queue size
system.cpu.icache.prefetcher.pfSpanPage             0                       # number of prefetches that crossed the page
system.cpu.idleCycles                          168425                       # Total number of cycles that the CPU has spent unscheduled due to idling
system.cpu.iew.branchMispredicts                29268                       # Number of branch mispredicts detected at execute
system.cpu.iew.exec_branches                   453615                       # Number of branches executed
system.cpu.iew.exec_nop                             0                       # number of nop insts executed
system.cpu.iew.exec_rate                     1.585352                       # Inst execution rate
system.cpu.iew.exec_refs                       930949                       # number of memory reference insts executed
system.cpu.iew.exec_stores                     241915                       # Number of stores executed
system.cpu.iew.exec_swp                             0                       # number of swp insts executed
system.cpu.iew.iewBlockCycles                  704256                       # Number of cycles IEW is blocking
system.cpu.iew.iewDispLoadInsts                720558                       # Number of dispatched load instructions
system.cpu.iew.iewDispNonSpecInsts               1101                       # Number of dispatched non-speculative instructions
system.cpu.iew.iewDispSquashedInsts               455                       # Number of squashed instructions skipped by dispatch
system.cpu.iew.iewDispStoreInsts               252404                       # Number of dispatched store instructions
system.cpu.iew.iewDispatchedInsts             5118602                       # Number of instructions dispatched to IQ
system.cpu.iew.iewExecLoadInsts                689034                       # Number of load instructions executed
system.cpu.iew.iewExecSquashedInsts             35191                       # Number of squashed instructions skipped in execute
system.cpu.iew.iewExecutedInsts               4760287                       # Number of executed instructions
system.cpu.iew.iewIQFullEvents                   3269                       # Number of times the IQ has become full, causing a stall
system.cpu.iew.iewIdleCycles                        0                       # Number of cycles IEW is idle
system.cpu.iew.iewLSQFullEvents                  9278                       # Number of times the LSQ has become full, causing a stall
system.cpu.iew.iewSquashCycles                  24805                       # Number of cycles IEW is squashing
system.cpu.iew.iewUnblockCycles                 15442                       # Number of cycles IEW is unblocking
system.cpu.iew.lsq.thread0.blockedLoads             0                       # Number of blocked loads due to partial load-store forwarding
system.cpu.iew.lsq.thread0.cacheBlocked           590                       # Number of times an access to memory failed due to the cache being blocked
system.cpu.iew.lsq.thread0.forwLoads            44424                       # Number of loads that had data forwarded from stores
system.cpu.iew.lsq.thread0.ignoredResponses          259                       # Number of memory responses ignored because the instruction is squashed
system.cpu.iew.lsq.thread0.invAddrLoads             0                       # Number of loads ignored due to an invalid address
system.cpu.iew.lsq.thread0.invAddrSwpfs             0                       # Number of software prefetches ignored due to an invalid address
system.cpu.iew.lsq.thread0.memOrderViolation           84                       # Number of memory ordering violations
system.cpu.iew.lsq.thread0.rescheduledLoads            0                       # Number of loads that were rescheduled
system.cpu.iew.lsq.thread0.squashedLoads       118716                       # Number of loads squashed
system.cpu.iew.lsq.thread0.squashedStores        29842                       # Number of stores squashed
system.cpu.iew.memOrderViolationEvents             84                       # Number of memory order violations
system.cpu.iew.predictedNotTakenIncorrect        21012                       # Number of branches that were predicted not taken incorrectly
system.cpu.iew.predictedTakenIncorrect           8256                       # Number of branches that were predicted taken incorrectly
system.cpu.iew.wb_consumers                   6400808                       # num instructions consuming a value
system.cpu.iew.wb_count                       4737507                       # cumulative count of insts written-back
system.cpu.iew.wb_fanout                     0.577197                       # average fanout of values written-back
system.cpu.iew.wb_producers                   3694526                       # num instructions producing a value
system.cpu.iew.wb_rate                       1.577765                       # insts written-back per cycle
system.cpu.iew.wb_sent                        4744695                       # cumulative count of insts sent to commit
system.cpu.int_regfile_reads                  7377901                       # number of integer regfile reads
system.cpu.int_regfile_writes                 4049958                       # number of integer regfile writes
system.cpu.ipc                               0.792476                       # IPC: Instructions Per Cycle
system.cpu.ipc_total                         0.792476                       # IPC: Total IPC of All Threads
system.cpu.iq.FU_type_0::No_OpClass             27313      0.57%      0.57% # Type of FU issued
system.cpu.iq.FU_type_0::IntAlu               3727935     77.74%     78.31% # Type of FU issued
system.cpu.iq.FU_type_0::IntMult                 1079      0.02%     78.33% # Type of FU issued
system.cpu.iq.FU_type_0::IntDiv                 42200      0.88%     79.21% # Type of FU issued
system.cpu.iq.FU_type_0::FloatAdd                4754      0.10%     79.31% # Type of FU issued
system.cpu.iq.FU_type_0::FloatCmp                   0      0.00%     79.31% # Type of FU issued
system.cpu.iq.FU_type_0::FloatCvt                1416      0.03%     79.34% # Type of FU issued
system.cpu.iq.FU_type_0::FloatMult                  0      0.00%     79.34% # Type of FU issued
system.cpu.iq.FU_type_0::FloatMultAcc               0      0.00%     79.34% # Type of FU issued
system.cpu.iq.FU_type_0::FloatDiv                   0      0.00%     79.34% # Type of FU issued
system.cpu.iq.FU_type_0::FloatMisc                  0      0.00%     79.34% # Type of FU issued
system.cpu.iq.FU_type_0::FloatSqrt                  0      0.00%     79.34% # Type of FU issued
system.cpu.iq.FU_type_0::SimdAdd                 7084      0.15%     79.49% # Type of FU issued
system.cpu.iq.FU_type_0::SimdAddAcc                 0      0.00%     79.49% # Type of FU issued
system.cpu.iq.FU_type_0::SimdAlu                15206      0.32%     79.80% # Type of FU issued
system.cpu.iq.FU_type_0::SimdCmp                    0      0.00%     79.80% # Type of FU issued
system.cpu.iq.FU_type_0::SimdCvt                14382      0.30%     80.10% # Type of FU issued
system.cpu.iq.FU_type_0::SimdMisc                7382      0.15%     80.26% # Type of FU issued
system.cpu.iq.FU_type_0::SimdMult                   0      0.00%     80.26% # Type of FU issued
system.cpu.iq.FU_type_0::SimdMultAcc                0      0.00%     80.26% # Type of FU issued
system.cpu.iq.FU_type_0::SimdShift               2504      0.05%     80.31% # Type of FU issued
system.cpu.iq.FU_type_0::SimdShiftAcc               0      0.00%     80.31% # Type of FU issued
system.cpu.iq.FU_type_0::SimdDiv                    0      0.00%     80.31% # Type of FU issued
system.cpu.iq.FU_type_0::SimdSqrt                   0      0.00%     80.31% # Type of FU issued
system.cpu.iq.FU_type_0::SimdFloatAdd               0      0.00%     80.31% # Type of FU issued
system.cpu.iq.FU_type_0::SimdFloatAlu               0      0.00%     80.31% # Type of FU issued
system.cpu.iq.FU_type_0::SimdFloatCmp               0      0.00%     80.31% # Type of FU issued
system.cpu.iq.FU_type_0::SimdFloatCvt               0      0.00%     80.31% # Type of FU issued
system.cpu.iq.FU_type_0::SimdFloatDiv               0      0.00%     80.31% # Type of FU issued
system.cpu.iq.FU_type_0::SimdFloatMisc              0      0.00%     80.31% # Type of FU issued
system.cpu.iq.FU_type_0::SimdFloatMult              0      0.00%     80.31% # Type of FU issued
system.cpu.iq.FU_type_0::SimdFloatMultAcc            0      0.00%     80.31% # Type of FU issued
system.cpu.iq.FU_type_0::SimdFloatSqrt              0      0.00%     80.31% # Type of FU issued
system.cpu.iq.FU_type_0::SimdReduceAdd              0      0.00%     80.31% # Type of FU issued
system.cpu.iq.FU_type_0::SimdReduceAlu              0      0.00%     80.31% # Type of FU issued
system.cpu.iq.FU_type_0::SimdReduceCmp              0      0.00%     80.31% # Type of FU issued
system.cpu.iq.FU_type_0::SimdFloatReduceAdd            0      0.00%     80.31% # Type of FU issued
system.cpu.iq.FU_type_0::SimdFloatReduceCmp            0      0.00%     80.31% # Type of FU issued
system.cpu.iq.FU_type_0::SimdAes                    0      0.00%     80.31% # Type of FU issued
system.cpu.iq.FU_type_0::SimdAesMix                 0      0.00%     80.31% # Type of FU issued
system.cpu.iq.FU_type_0::SimdSha1Hash               0      0.00%     80.31% # Type of FU issued
system.cpu.iq.FU_type_0::SimdSha1Hash2              0      0.00%     80.31% # Type of FU issued
system.cpu.iq.FU_type_0::SimdSha256Hash             0      0.00%     80.31% # Type of FU issued
system.cpu.iq.FU_type_0::SimdSha256Hash2            0      0.00%     80.31% # Type of FU issued
system.cpu.iq.FU_type_0::SimdShaSigma2              0      0.00%     80.31% # Type of FU issued
system.cpu.iq.FU_type_0::SimdShaSigma3              0      0.00%     80.31% # Type of FU issued
system.cpu.iq.FU_type_0::SimdPredAlu                0      0.00%     80.31% # Type of FU issued
system.cpu.iq.FU_type_0::MemRead               673137     14.04%     94.35% # Type of FU issued
system.cpu.iq.FU_type_0::MemWrite              230844      4.81%     99.16% # Type of FU issued
system.cpu.iq.FU_type_0::FloatMemRead           26532      0.55%     99.71% # Type of FU issued
system.cpu.iq.FU_type_0::FloatMemWrite          13713      0.29%    100.00% # Type of FU issued
system.cpu.iq.FU_type_0::IprAccess                  0      0.00%    100.00% # Type of FU issued
system.cpu.iq.FU_type_0::InstPrefetch               0      0.00%    100.00% # Type of FU issued
system.cpu.iq.FU_type_0::total                4795481                       # Type of FU issued
system.cpu.iq.fp_alu_accesses                   94028                       # Number of floating point alu accesses
system.cpu.iq.fp_inst_queue_reads              189467                       # Number of floating instruction queue reads
system.cpu.iq.fp_inst_queue_wakeup_accesses        90142                       # Number of floating instruction queue wakeup accesses
system.cpu.iq.fp_inst_queue_writes             138161                       # Number of floating instruction queue writes
system.cpu.iq.fu_busy_cnt                           0                       # FU busy when requested
system.cpu.iq.fu_busy_rate                          0                       # FU busy rate (busy events/executed inst)
system.cpu.iq.fu_full::No_OpClass                   0                       # attempts to use FU when none available
system.cpu.iq.fu_full::IntAlu                       0                       # attempts to use FU when none available
system.cpu.iq.fu_full::IntMult                      0                       # attempts to use FU when none available
system.cpu.iq.fu_full::IntDiv                       0                       # attempts to use FU when none available
system.cpu.iq.fu_full::FloatAdd                     0                       # attempts to use FU when none available
system.cpu.iq.fu_full::FloatCmp                     0                       # attempts to use FU when none available
system.cpu.iq.fu_full::FloatCvt                     0                       # attempts to use FU when none available
system.cpu.iq.fu_full::FloatMult                    0                       # attempts to use FU when none available
system.cpu.iq.fu_full::FloatMultAcc                 0                       # attempts to use FU when none available
system.cpu.iq.fu_full::FloatDiv                     0                       # attempts to use FU when none available
system.cpu.iq.fu_full::FloatMisc                    0                       # attempts to use FU when none available
system.cpu.iq.fu_full::FloatSqrt                    0                       # attempts to use FU when none available
system.cpu.iq.fu_full::SimdAdd                      0                       # attempts to use FU when none available
system.cpu.iq.fu_full::SimdAddAcc                   0                       # attempts to use FU when none available
system.cpu.iq.fu_full::SimdAlu                      0                       # attempts to use FU when none available
system.cpu.iq.fu_full::SimdCmp                      0                       # attempts to use FU when none available
system.cpu.iq.fu_full::SimdCvt                      0                       # attempts to use FU when none available
system.cpu.iq.fu_full::SimdMisc                     0                       # attempts to use FU when none available
system.cpu.iq.fu_full::SimdMult                     0                       # attempts to use FU when none available
system.cpu.iq.fu_full::SimdMultAcc                  0                       # attempts to use FU when none available
system.cpu.iq.fu_full::SimdShift                    0                       # attempts to use FU when none available
system.cpu.iq.fu_full::SimdShiftAcc                 0                       # attempts to use FU when none available
system.cpu.iq.fu_full::SimdDiv                      0                       # attempts to use FU when none available
system.cpu.iq.fu_full::SimdSqrt                     0                       # attempts to use FU when none available
system.cpu.iq.fu_full::SimdFloatAdd                 0                       # attempts to use FU when none available
system.cpu.iq.fu_full::SimdFloatAlu                 0                       # attempts to use FU when none available
system.cpu.iq.fu_full::SimdFloatCmp                 0                       # attempts to use FU when none available
system.cpu.iq.fu_full::SimdFloatCvt                 0                       # attempts to use FU when none available
system.cpu.iq.fu_full::SimdFloatDiv                 0                       # attempts to use FU when none available
system.cpu.iq.fu_full::SimdFloatMisc                0                       # attempts to use FU when none available
system.cpu.iq.fu_full::SimdFloatMult                0                       # attempts to use FU when none available
system.cpu.iq.fu_full::SimdFloatMultAcc             0                       # attempts to use FU when none available
system.cpu.iq.fu_full::SimdFloatSqrt                0                       # attempts to use FU when none available
system.cpu.iq.fu_full::SimdReduceAdd                0                       # attempts to use FU when none available
system.cpu.iq.fu_full::SimdReduceAlu                0                       # attempts to use FU when none available
system.cpu.iq.fu_full::SimdReduceCmp                0                       # attempts to use FU when none available
system.cpu.iq.fu_full::SimdFloatReduceAdd            0                       # attempts to use FU when none available
system.cpu.iq.fu_full::SimdFloatReduceCmp            0                       # attempts to use FU when none available
system.cpu.iq.fu_full::SimdAes                      0                       # attempts to use FU when none available
system.cpu.iq.fu_full::SimdAesMix                   0                       # attempts to use FU when none available
system.cpu.iq.fu_full::SimdSha1Hash                 0                       # attempts to use FU when none available
system.cpu.iq.fu_full::SimdSha1Hash2                0                       # attempts to use FU when none available
system.cpu.iq.fu_full::SimdSha256Hash               0                       # attempts to use FU when none available
system.cpu.iq.fu_full::SimdSha256Hash2              0                       # attempts to use FU when none available
system.cpu.iq.fu_full::SimdShaSigma2                0                       # attempts to use FU when none available
system.cpu.iq.fu_full::SimdShaSigma3                0                       # attempts to use FU when none available
system.cpu.iq.fu_full::SimdPredAlu                  0                       # attempts to use FU when none available
system.cpu.iq.fu_full::MemRead                      0                       # attempts to use FU when none available
system.cpu.iq.fu_full::MemWrite                     0                       # attempts to use FU when none available
system.cpu.iq.fu_full::FloatMemRead                 0                       # attempts to use FU when none available
system.cpu.iq.fu_full::FloatMemWrite                0                       # attempts to use FU when none available
system.cpu.iq.fu_full::IprAccess                    0                       # attempts to use FU when none available
system.cpu.iq.fu_full::InstPrefetch                 0                       # attempts to use FU when none available
system.cpu.iq.int_alu_accesses                4674140                       # Number of integer alu accesses
system.cpu.iq.int_inst_queue_reads           12253682                       # Number of integer instruction queue reads
system.cpu.iq.int_inst_queue_wakeup_accesses      4647365                       # Number of integer instruction queue wakeup accesses
system.cpu.iq.int_inst_queue_writes           5880333                       # Number of integer instruction queue writes
system.cpu.iq.iqInstsAdded                    5117250                       # Number of instructions added to the IQ (excludes non-spec)
system.cpu.iq.iqInstsIssued                   4795481                       # Number of instructions issued
system.cpu.iq.iqNonSpecInstsAdded                1352                       # Number of non-speculative instructions added to the IQ
system.cpu.iq.iqSquashedInstsExamined          899810                       # Number of squashed instructions iterated over during squash; mainly for profiling
system.cpu.iq.iqSquashedInstsIssued             17946                       # Number of squashed instructions issued
system.cpu.iq.iqSquashedNonSpecRemoved            488                       # Number of squashed non-spec instructions that were removed
system.cpu.iq.iqSquashedOperandsExamined      1338199                       # Number of squashed operands that are examined and possibly removed from graph
system.cpu.iq.issued_per_cycle::samples       2834244                       # Number of insts issued each cycle
system.cpu.iq.issued_per_cycle::mean         1.691979                       # Number of insts issued each cycle
system.cpu.iq.issued_per_cycle::stdev        1.664348                       # Number of insts issued each cycle
system.cpu.iq.issued_per_cycle::underflows            0      0.00%      0.00% # Number of insts issued each cycle
system.cpu.iq.issued_per_cycle::0             1205054     42.52%     42.52% # Number of insts issued each cycle
system.cpu.iq.issued_per_cycle::1              208056      7.34%     49.86% # Number of insts issued each cycle
system.cpu.iq.issued_per_cycle::2              349217     12.32%     62.18% # Number of insts issued each cycle
system.cpu.iq.issued_per_cycle::3              398677     14.07%     76.25% # Number of insts issued each cycle
system.cpu.iq.issued_per_cycle::4              673240     23.75%    100.00% # Number of insts issued each cycle
system.cpu.iq.issued_per_cycle::overflows            0      0.00%    100.00% # Number of insts issued each cycle
system.cpu.iq.issued_per_cycle::min_value            0                       # Number of insts issued each cycle
system.cpu.iq.issued_per_cycle::max_value            4                       # Number of insts issued each cycle
system.cpu.iq.issued_per_cycle::total         2834244                       # Number of insts issued each cycle
system.cpu.iq.rate                           1.597073                       # Inst issue rate
system.cpu.iq.vec_alu_accesses                      0                       # Number of vector alu accesses
system.cpu.iq.vec_inst_queue_reads                  0                       # Number of vector instruction queue reads
system.cpu.iq.vec_inst_queue_wakeup_accesses            0                       # Number of vector instruction queue wakeup accesses
system.cpu.iq.vec_inst_queue_writes                 0                       # Number of vector instruction queue writes
system.cpu.itb.rdAccesses                           0                       # TLB accesses on read requests
system.cpu.itb.rdMisses                             0                       # TLB misses on read requests
system.cpu.itb.wrAccesses                      294842                       # TLB accesses on write requests
system.cpu.itb.wrMisses                           412                       # TLB misses on write requests
system.cpu.memDep0.conflictingLoads             11399                       # Number of conflicting loads.
system.cpu.memDep0.conflictingStores             4957                       # Number of conflicting stores.
system.cpu.memDep0.insertedLoads               720558                       # Number of loads inserted to the mem dependence unit.
system.cpu.memDep0.insertedStores              252404                       # Number of stores inserted to the mem dependence unit.
system.cpu.misc_regfile_reads                 1870191                       # number of misc regfile reads
system.cpu.misc_regfile_writes                    774                       # number of misc regfile writes
system.cpu.numCycles                          3002669                       # number of cpu cycles simulated
system.cpu.numWorkItemsCompleted                    0                       # number of work items this cpu completed
system.cpu.numWorkItemsStarted                      0                       # number of work items this cpu started
system.cpu.process.numSyscalls                     89                       # Number of system calls
system.cpu.rename.BlockCycles                  853362                       # Number of cycles rename is blocking
system.cpu.rename.CommittedMaps               5553667                       # Number of HB maps that are committed
system.cpu.rename.FullRegisterEvents              128                       # Number of times there has been no free registers
system.cpu.rename.IQFullEvents                  45003                       # Number of times rename has blocked due to IQ full
system.cpu.rename.IdleCycles                   403341                       # Number of cycles rename is idle
system.cpu.rename.LQFullEvents                  18822                       # Number of times rename has blocked due to LQ full
system.cpu.rename.ROBFullEvents                  4598                       # Number of times rename has blocked due to ROB full
system.cpu.rename.RenameLookups              13680480                       # Number of register rename lookups that rename has made
system.cpu.rename.RenamedInsts                5261545                       # Number of instructions processed by rename
system.cpu.rename.RenamedOperands             6965555                       # Number of destination operands rename has renamed
system.cpu.rename.RunCycles                   1352831                       # Number of cycles rename is running
system.cpu.rename.SQFullEvents                  77990                       # Number of times rename has blocked due to SQ full
system.cpu.rename.SquashCycles                  24805                       # Number of cycles rename is squashing
system.cpu.rename.UnblockCycles                177908                       # Number of cycles rename is unblocking
system.cpu.rename.UndoneMaps                  1411865                       # Number of HB maps that are undone due to squashing
system.cpu.rename.fp_rename_lookups            161992                       # Number of floating rename lookups
system.cpu.rename.int_rename_lookups          8330483                       # Number of integer rename lookups
system.cpu.rename.serializeStallCycles          21997                       # count of cycles rename stalled for serializing inst
system.cpu.rename.serializingInsts               1007                       # count of serializing insts renamed
system.cpu.rename.skidInsts                    203001                       # count of insts added to the skid buffer
system.cpu.rename.tempSerializingInsts           1066                       # count of temporary serializing insts renamed
system.cpu.rob.rob_reads                      6997964                       # The number of ROB reads
system.cpu.rob.rob_writes                    10483702                       # The number of ROB writes
system.cpu.timesIdled                            1695                       # Number of times that the entire CPU went into an idle state and unscheduled itself
system.l2bus.snoop_filter.hit_multi_requests           15                       # Number of requests hitting in the snoop filter with multiple (>1) holders of the requested data.
system.l2bus.snoop_filter.hit_multi_snoops            0                       # Number of snoops hitting in the snoop filter with multiple (>1) holders of the requested data.
system.l2bus.snoop_filter.hit_single_requests        18843                       # Number of requests hitting in the snoop filter with a single holder of the requested data.
system.l2bus.snoop_filter.hit_single_snoops          458                       # Number of snoops hitting in the snoop filter with a single holder of the requested data.
system.l2bus.snoop_filter.tot_requests          38966                       # Total number of requests made to the snoop filter.
system.l2bus.snoop_filter.tot_snoops              458                       # Total number of snoops made to the snoop filter.
system.l2cache.prefetcher.num_hwpf_issued          631                       # number of hwpf issued
system.l2cache.prefetcher.pfBufferHit               0                       # number of redundant prefetches already in prefetch queue
system.l2cache.prefetcher.pfIdentified            632                       # number of prefetch candidates identified
system.l2cache.prefetcher.pfInCache                 0                       # number of redundant prefetches already in cache/mshr dropped
system.l2cache.prefetcher.pfRemovedFull             0                       # number of prefetches dropped due to prefetch queue size
system.l2cache.prefetcher.pfSpanPage              104                       # number of prefetches that crossed the page
system.membus.snoop_filter.hit_multi_requests            0                       # Number of requests hitting in the snoop filter with multiple (>1) holders of the requested data.
system.membus.snoop_filter.hit_multi_snoops            0                       # Number of snoops hitting in the snoop filter with multiple (>1) holders of the requested data.
system.membus.snoop_filter.hit_single_requests         9613                       # Number of requests hitting in the snoop filter with a single holder of the requested data.
system.membus.snoop_filter.hit_single_snoops            0                       # Number of snoops hitting in the snoop filter with a single holder of the requested data.
system.membus.snoop_filter.tot_requests         23350                       # Total number of requests made to the snoop filter.
system.membus.snoop_filter.tot_snoops               0                       # Total number of snoops made to the snoop filter.
system.membus.pwrStateResidencyTicks::UNDEFINED   1201067200                       # Cumulative time (in ticks) in various power states
system.membus.trans_dist::ReadResp              12423                       # Transaction distribution
system.membus.trans_dist::WritebackDirty         1358                       # Transaction distribution
system.membus.trans_dist::CleanEvict             8255                       # Transaction distribution
system.membus.trans_dist::ReadExReq              1314                       # Transaction distribution
system.membus.trans_dist::ReadExResp             1314                       # Transaction distribution
system.membus.trans_dist::ReadSharedReq         12423                       # Transaction distribution
system.membus.pkt_count_system.l2cache.mem_side::system.mem_ctrl.port        37087                       # Packet count per connected master and slave (bytes)
system.membus.pkt_count_system.l2cache.mem_side::total        37087                       # Packet count per connected master and slave (bytes)
system.membus.pkt_count::total                  37087                       # Packet count per connected master and slave (bytes)
system.membus.pkt_size_system.l2cache.mem_side::system.mem_ctrl.port       966080                       # Cumulative packet size per connected master and slave (bytes)
system.membus.pkt_size_system.l2cache.mem_side::total       966080                       # Cumulative packet size per connected master and slave (bytes)
system.membus.pkt_size::total                  966080                       # Cumulative packet size per connected master and slave (bytes)
system.membus.snoops                                0                       # Total snoops (count)
system.membus.snoopTraffic                          0                       # Total snoop traffic (bytes)
system.membus.snoop_fanout::samples             13737                       # Request fanout histogram
system.membus.snoop_fanout::mean                    0                       # Request fanout histogram
system.membus.snoop_fanout::stdev                   0                       # Request fanout histogram
system.membus.snoop_fanout::underflows              0      0.00%      0.00% # Request fanout histogram
system.membus.snoop_fanout::0                   13737    100.00%    100.00% # Request fanout histogram
system.membus.snoop_fanout::1                       0      0.00%    100.00% # Request fanout histogram
system.membus.snoop_fanout::overflows               0      0.00%    100.00% # Request fanout histogram
system.membus.snoop_fanout::min_value               0                       # Request fanout histogram
system.membus.snoop_fanout::max_value               0                       # Request fanout histogram
system.membus.snoop_fanout::total               13737                       # Request fanout histogram
system.membus.reqLayer2.occupancy            11538200                       # Layer occupancy (ticks)
system.membus.reqLayer2.utilization               1.0                       # Layer utilization (%)
system.membus.respLayer0.occupancy           29808100                       # Layer occupancy (ticks)
system.membus.respLayer0.utilization              2.5                       # Layer utilization (%)
system.l2bus.pwrStateResidencyTicks::UNDEFINED   1201067200                       # Cumulative time (in ticks) in various power states
system.l2bus.trans_dist::ReadResp               18124                       # Transaction distribution
system.l2bus.trans_dist::WritebackDirty          4123                       # Transaction distribution
system.l2bus.trans_dist::CleanEvict             24427                       # Transaction distribution
system.l2bus.trans_dist::HardPFReq                900                       # Transaction distribution
system.l2bus.trans_dist::ReadExReq               1999                       # Transaction distribution
system.l2bus.trans_dist::ReadExResp              1999                       # Transaction distribution
system.l2bus.trans_dist::ReadSharedReq          18124                       # Transaction distribution
system.l2bus.pkt_count_system.cpu.icache.mem_side::system.l2cache.cpu_side         8884                       # Packet count per connected master and slave (bytes)
system.l2bus.pkt_count_system.cpu.dcache.mem_side::system.l2cache.cpu_side        50201                       # Packet count per connected master and slave (bytes)
system.l2bus.pkt_count::total                   59085                       # Packet count per connected master and slave (bytes)
system.l2bus.pkt_size_system.cpu.icache.mem_side::system.l2cache.cpu_side       195136                       # Cumulative packet size per connected master and slave (bytes)
system.l2bus.pkt_size_system.cpu.dcache.mem_side::system.l2cache.cpu_side      1269440                       # Cumulative packet size per connected master and slave (bytes)
system.l2bus.pkt_size::total                  1464576                       # Cumulative packet size per connected master and slave (bytes)
system.l2bus.snoops                             10611                       # Total snoops (count)
system.l2bus.snoopTraffic                       87168                       # Total snoop traffic (bytes)
system.l2bus.snoop_fanout::samples              30730                       # Request fanout histogram
system.l2bus.snoop_fanout::mean              0.015392                       # Request fanout histogram
system.l2bus.snoop_fanout::stdev             0.123108                       # Request fanout histogram
system.l2bus.snoop_fanout::underflows               0      0.00%      0.00% # Request fanout histogram
system.l2bus.snoop_fanout::0                    30257     98.46%     98.46% # Request fanout histogram
system.l2bus.snoop_fanout::1                      473      1.54%    100.00% # Request fanout histogram
system.l2bus.snoop_fanout::2                        0      0.00%    100.00% # Request fanout histogram
system.l2bus.snoop_fanout::overflows                0      0.00%    100.00% # Request fanout histogram
system.l2bus.snoop_fanout::min_value                0                       # Request fanout histogram
system.l2bus.snoop_fanout::max_value                1                       # Request fanout histogram
system.l2bus.snoop_fanout::total                30730                       # Request fanout histogram
system.l2bus.respLayer1.occupancy            20493195                       # Layer occupancy (ticks)
system.l2bus.respLayer1.utilization               1.7                       # Layer utilization (%)
system.l2bus.reqLayer0.occupancy             19241014                       # Layer occupancy (ticks)
system.l2bus.reqLayer0.utilization                1.6                       # Layer utilization (%)
system.l2bus.respLayer0.occupancy             3657996                       # Layer occupancy (ticks)
system.l2bus.respLayer0.utilization               0.3                       # Layer utilization (%)
system.clk_domain.clock                           400                       # Clock period in ticks
system.clk_domain.voltage_domain.voltage            1                       # Voltage in Volts
system.cpu.pwrStateResidencyTicks::ON      1201067200                       # Cumulative time (in ticks) in various power states
system.cpu.icache.pwrStateResidencyTicks::UNDEFINED   1201067200                       # Cumulative time (in ticks) in various power states
system.cpu.icache.demand_hits::.cpu.inst       290921                       # number of demand (read+write) hits
system.cpu.icache.demand_hits::total           290921                       # number of demand (read+write) hits
system.cpu.icache.overall_hits::.cpu.inst       290921                       # number of overall hits
system.cpu.icache.overall_hits::total          290921                       # number of overall hits
system.cpu.icache.demand_misses::.cpu.inst         3769                       # number of demand (read+write) misses
system.cpu.icache.demand_misses::total           3769                       # number of demand (read+write) misses
system.cpu.icache.overall_misses::.cpu.inst         3769                       # number of overall misses
system.cpu.icache.overall_misses::total          3769                       # number of overall misses
system.cpu.icache.demand_miss_latency::.cpu.inst    183943200                       # number of demand (read+write) miss cycles
system.cpu.icache.demand_miss_latency::total    183943200                       # number of demand (read+write) miss cycles
system.cpu.icache.overall_miss_latency::.cpu.inst    183943200                       # number of overall miss cycles
system.cpu.icache.overall_miss_latency::total    183943200                       # number of overall miss cycles
system.cpu.icache.demand_accesses::.cpu.inst       294690                       # number of demand (read+write) accesses
system.cpu.icache.demand_accesses::total       294690                       # number of demand (read+write) accesses
system.cpu.icache.overall_accesses::.cpu.inst       294690                       # number of overall (read+write) accesses
system.cpu.icache.overall_accesses::total       294690                       # number of overall (read+write) accesses
system.cpu.icache.demand_miss_rate::.cpu.inst     0.012790                       # miss rate for demand accesses
system.cpu.icache.demand_miss_rate::total     0.012790                       # miss rate for demand accesses
system.cpu.icache.overall_miss_rate::.cpu.inst     0.012790                       # miss rate for overall accesses
system.cpu.icache.overall_miss_rate::total     0.012790                       # miss rate for overall accesses
system.cpu.icache.demand_avg_miss_latency::.cpu.inst 48804.245158                       # average overall miss latency
system.cpu.icache.demand_avg_miss_latency::total 48804.245158                       # average overall miss latency
system.cpu.icache.overall_avg_miss_latency::.cpu.inst 48804.245158                       # average overall miss latency
system.cpu.icache.overall_avg_miss_latency::total 48804.245158                       # average overall miss latency
system.cpu.icache.blocked_cycles::no_mshrs          172                       # number of cycles access was blocked
system.cpu.icache.blocked_cycles::no_targets            0                       # number of cycles access was blocked
system.cpu.icache.blocked::no_mshrs                 4                       # number of cycles access was blocked
system.cpu.icache.blocked::no_targets               0                       # number of cycles access was blocked
system.cpu.icache.avg_blocked_cycles::no_mshrs           43                       # average number of cycles each access was blocked
system.cpu.icache.avg_blocked_cycles::no_targets          nan                       # average number of cycles each access was blocked
system.cpu.icache.writebacks::.writebacks            3                       # number of writebacks
system.cpu.icache.writebacks::total                 3                       # number of writebacks
system.cpu.icache.demand_mshr_hits::.cpu.inst          722                       # number of demand (read+write) MSHR hits
system.cpu.icache.demand_mshr_hits::total          722                       # number of demand (read+write) MSHR hits
system.cpu.icache.overall_mshr_hits::.cpu.inst          722                       # number of overall MSHR hits
system.cpu.icache.overall_mshr_hits::total          722                       # number of overall MSHR hits
system.cpu.icache.demand_mshr_misses::.cpu.inst         3047                       # number of demand (read+write) MSHR misses
system.cpu.icache.demand_mshr_misses::total         3047                       # number of demand (read+write) MSHR misses
system.cpu.icache.overall_mshr_misses::.cpu.inst         3047                       # number of overall MSHR misses
system.cpu.icache.overall_mshr_misses::total         3047                       # number of overall MSHR misses
system.cpu.icache.demand_mshr_miss_latency::.cpu.inst    148964800                       # number of demand (read+write) MSHR miss cycles
system.cpu.icache.demand_mshr_miss_latency::total    148964800                       # number of demand (read+write) MSHR miss cycles
system.cpu.icache.overall_mshr_miss_latency::.cpu.inst    148964800                       # number of overall MSHR miss cycles
system.cpu.icache.overall_mshr_miss_latency::total    148964800                       # number of overall MSHR miss cycles
system.cpu.icache.demand_mshr_miss_rate::.cpu.inst     0.010340                       # mshr miss rate for demand accesses
system.cpu.icache.demand_mshr_miss_rate::total     0.010340                       # mshr miss rate for demand accesses
system.cpu.icache.overall_mshr_miss_rate::.cpu.inst     0.010340                       # mshr miss rate for overall accesses
system.cpu.icache.overall_mshr_miss_rate::total     0.010340                       # mshr miss rate for overall accesses
system.cpu.icache.demand_avg_mshr_miss_latency::.cpu.inst 48889.005579                       # average overall mshr miss latency
system.cpu.icache.demand_avg_mshr_miss_latency::total 48889.005579                       # average overall mshr miss latency
system.cpu.icache.overall_avg_mshr_miss_latency::.cpu.inst 48889.005579                       # average overall mshr miss latency
system.cpu.icache.overall_avg_mshr_miss_latency::total 48889.005579                       # average overall mshr miss latency
system.cpu.icache.replacements                   2791                       # number of replacements
system.cpu.icache.ReadReq_hits::.cpu.inst       290921                       # number of ReadReq hits
system.cpu.icache.ReadReq_hits::total          290921                       # number of ReadReq hits
system.cpu.icache.ReadReq_misses::.cpu.inst         3769                       # number of ReadReq misses
system.cpu.icache.ReadReq_misses::total          3769                       # number of ReadReq misses
system.cpu.icache.ReadReq_miss_latency::.cpu.inst    183943200                       # number of ReadReq miss cycles
system.cpu.icache.ReadReq_miss_latency::total    183943200                       # number of ReadReq miss cycles
system.cpu.icache.ReadReq_accesses::.cpu.inst       294690                       # number of ReadReq accesses(hits+misses)
system.cpu.icache.ReadReq_accesses::total       294690                       # number of ReadReq accesses(hits+misses)
system.cpu.icache.ReadReq_miss_rate::.cpu.inst     0.012790                       # miss rate for ReadReq accesses
system.cpu.icache.ReadReq_miss_rate::total     0.012790                       # miss rate for ReadReq accesses
system.cpu.icache.ReadReq_avg_miss_latency::.cpu.inst 48804.245158                       # average ReadReq miss latency
system.cpu.icache.ReadReq_avg_miss_latency::total 48804.245158                       # average ReadReq miss latency
system.cpu.icache.ReadReq_mshr_hits::.cpu.inst          722                       # number of ReadReq MSHR hits
system.cpu.icache.ReadReq_mshr_hits::total          722                       # number of ReadReq MSHR hits
system.cpu.icache.ReadReq_mshr_misses::.cpu.inst         3047                       # number of ReadReq MSHR misses
system.cpu.icache.ReadReq_mshr_misses::total         3047                       # number of ReadReq MSHR misses
system.cpu.icache.ReadReq_mshr_miss_latency::.cpu.inst    148964800                       # number of ReadReq MSHR miss cycles
system.cpu.icache.ReadReq_mshr_miss_latency::total    148964800                       # number of ReadReq MSHR miss cycles
system.cpu.icache.ReadReq_mshr_miss_rate::.cpu.inst     0.010340                       # mshr miss rate for ReadReq accesses
system.cpu.icache.ReadReq_mshr_miss_rate::total     0.010340                       # mshr miss rate for ReadReq accesses
system.cpu.icache.ReadReq_avg_mshr_miss_latency::.cpu.inst 48889.005579                       # average ReadReq mshr miss latency
system.cpu.icache.ReadReq_avg_mshr_miss_latency::total 48889.005579                       # average ReadReq mshr miss latency
system.cpu.icache.prefetcher.pwrStateResidencyTicks::UNDEFINED   1201067200                       # Cumulative time (in ticks) in various power states
system.cpu.icache.tags.pwrStateResidencyTicks::UNDEFINED   1201067200                       # Cumulative time (in ticks) in various power states
system.cpu.icache.tags.tagsinuse           253.776546                       # Cycle average of tags in use
system.cpu.icache.tags.total_refs              257177                       # Total number of references to valid blocks.
system.cpu.icache.tags.sampled_refs              2791                       # Sample count of references to valid blocks.
system.cpu.icache.tags.avg_refs             92.145109                       # Average number of references to valid blocks.
system.cpu.icache.tags.warmup_cycle             66400                       # Cycle when the warmup percentage was hit.
system.cpu.icache.tags.occ_blocks::.cpu.inst   253.776546                       # Average occupied blocks per requestor
system.cpu.icache.tags.occ_percent::.cpu.inst     0.991315                       # Average percentage of cache occupancy
system.cpu.icache.tags.occ_percent::total     0.991315                       # Average percentage of cache occupancy
system.cpu.icache.tags.occ_task_id_blocks::1024          256                       # Occupied blocks per task id
system.cpu.icache.tags.age_task_id_blocks_1024::0           72                       # Occupied blocks per task id
system.cpu.icache.tags.age_task_id_blocks_1024::1            2                       # Occupied blocks per task id
system.cpu.icache.tags.age_task_id_blocks_1024::2          181                       # Occupied blocks per task id
system.cpu.icache.tags.age_task_id_blocks_1024::3            1                       # Occupied blocks per task id
system.cpu.icache.tags.occ_task_id_percent::1024            1                       # Percentage of cache occupancy per task id
system.cpu.icache.tags.tag_accesses            592427                       # Number of tag accesses
system.cpu.icache.tags.data_accesses           592427                       # Number of data accesses
system.cpu.dtb.walker.pwrStateResidencyTicks::UNDEFINED   1201067200                       # Cumulative time (in ticks) in various power states
system.cpu.interrupts.clk_domain.clock           6400                       # Clock period in ticks
system.cpu.itb.walker.pwrStateResidencyTicks::UNDEFINED   1201067200                       # Cumulative time (in ticks) in various power states
system.cpu.dcache.pwrStateResidencyTicks::UNDEFINED   1201067200                       # Cumulative time (in ticks) in various power states
system.cpu.dcache.demand_hits::.cpu.data       828617                       # number of demand (read+write) hits
system.cpu.dcache.demand_hits::total           828617                       # number of demand (read+write) hits
system.cpu.dcache.overall_hits::.cpu.data       828617                       # number of overall hits
system.cpu.dcache.overall_hits::total          828617                       # number of overall hits
system.cpu.dcache.demand_misses::.cpu.data        35674                       # number of demand (read+write) misses
system.cpu.dcache.demand_misses::total          35674                       # number of demand (read+write) misses
system.cpu.dcache.overall_misses::.cpu.data        35674                       # number of overall misses
system.cpu.dcache.overall_misses::total         35674                       # number of overall misses
system.cpu.dcache.demand_miss_latency::.cpu.data   1728589597                       # number of demand (read+write) miss cycles
system.cpu.dcache.demand_miss_latency::total   1728589597                       # number of demand (read+write) miss cycles
system.cpu.dcache.overall_miss_latency::.cpu.data   1728589597                       # number of overall miss cycles
system.cpu.dcache.overall_miss_latency::total   1728589597                       # number of overall miss cycles
system.cpu.dcache.demand_accesses::.cpu.data       864291                       # number of demand (read+write) accesses
system.cpu.dcache.demand_accesses::total       864291                       # number of demand (read+write) accesses
system.cpu.dcache.overall_accesses::.cpu.data       864291                       # number of overall (read+write) accesses
system.cpu.dcache.overall_accesses::total       864291                       # number of overall (read+write) accesses
system.cpu.dcache.demand_miss_rate::.cpu.data     0.041275                       # miss rate for demand accesses
system.cpu.dcache.demand_miss_rate::total     0.041275                       # miss rate for demand accesses
system.cpu.dcache.overall_miss_rate::.cpu.data     0.041275                       # miss rate for overall accesses
system.cpu.dcache.overall_miss_rate::total     0.041275                       # miss rate for overall accesses
system.cpu.dcache.demand_avg_miss_latency::.cpu.data 48455.166143                       # average overall miss latency
system.cpu.dcache.demand_avg_miss_latency::total 48455.166143                       # average overall miss latency
system.cpu.dcache.overall_avg_miss_latency::.cpu.data 48455.166143                       # average overall miss latency
system.cpu.dcache.overall_avg_miss_latency::total 48455.166143                       # average overall miss latency
system.cpu.dcache.blocked_cycles::no_mshrs        28292                       # number of cycles access was blocked
system.cpu.dcache.blocked_cycles::no_targets          174                       # number of cycles access was blocked
system.cpu.dcache.blocked::no_mshrs               720                       # number of cycles access was blocked
system.cpu.dcache.blocked::no_targets               2                       # number of cycles access was blocked
system.cpu.dcache.avg_blocked_cycles::no_mshrs    39.294444                       # average number of cycles each access was blocked
system.cpu.dcache.avg_blocked_cycles::no_targets           87                       # average number of cycles each access was blocked
system.cpu.dcache.unused_prefetches              1851                       # number of HardPF blocks evicted w/o reference
system.cpu.dcache.writebacks::.writebacks         2762                       # number of writebacks
system.cpu.dcache.writebacks::total              2762                       # number of writebacks
system.cpu.dcache.demand_mshr_hits::.cpu.data        22966                       # number of demand (read+write) MSHR hits
system.cpu.dcache.demand_mshr_hits::total        22966                       # number of demand (read+write) MSHR hits
system.cpu.dcache.overall_mshr_hits::.cpu.data        22966                       # number of overall MSHR hits
system.cpu.dcache.overall_mshr_hits::total        22966                       # number of overall MSHR hits
system.cpu.dcache.demand_mshr_misses::.cpu.data        12708                       # number of demand (read+write) MSHR misses
system.cpu.dcache.demand_mshr_misses::total        12708                       # number of demand (read+write) MSHR misses
system.cpu.dcache.overall_mshr_misses::.cpu.data        12708                       # number of overall MSHR misses
system.cpu.dcache.overall_mshr_misses::.cpu.dcache.prefetcher         4368                       # number of overall MSHR misses
system.cpu.dcache.overall_mshr_misses::total        17076                       # number of overall MSHR misses
system.cpu.dcache.demand_mshr_miss_latency::.cpu.data    586095997                       # number of demand (read+write) MSHR miss cycles
system.cpu.dcache.demand_mshr_miss_latency::total    586095997                       # number of demand (read+write) MSHR miss cycles
system.cpu.dcache.overall_mshr_miss_latency::.cpu.data    586095997                       # number of overall MSHR miss cycles
system.cpu.dcache.overall_mshr_miss_latency::.cpu.dcache.prefetcher    250916913                       # number of overall MSHR miss cycles
system.cpu.dcache.overall_mshr_miss_latency::total    837012910                       # number of overall MSHR miss cycles
system.cpu.dcache.demand_mshr_miss_rate::.cpu.data     0.014703                       # mshr miss rate for demand accesses
system.cpu.dcache.demand_mshr_miss_rate::total     0.014703                       # mshr miss rate for demand accesses
system.cpu.dcache.overall_mshr_miss_rate::.cpu.data     0.014703                       # mshr miss rate for overall accesses
system.cpu.dcache.overall_mshr_miss_rate::.cpu.dcache.prefetcher          inf                       # mshr miss rate for overall accesses
system.cpu.dcache.overall_mshr_miss_rate::total     0.019757                       # mshr miss rate for overall accesses
system.cpu.dcache.demand_avg_mshr_miss_latency::.cpu.data 46120.238983                       # average overall mshr miss latency
system.cpu.dcache.demand_avg_mshr_miss_latency::total 46120.238983                       # average overall mshr miss latency
system.cpu.dcache.overall_avg_mshr_miss_latency::.cpu.data 46120.238983                       # average overall mshr miss latency
system.cpu.dcache.overall_avg_mshr_miss_latency::.cpu.dcache.prefetcher 57444.348214                       # average overall mshr miss latency
system.cpu.dcache.overall_avg_mshr_miss_latency::total 49016.919068                       # average overall mshr miss latency
system.cpu.dcache.replacements                  16052                       # number of replacements
system.cpu.dcache.ReadReq_hits::.cpu.data       608098                       # number of ReadReq hits
system.cpu.dcache.ReadReq_hits::total          608098                       # number of ReadReq hits
system.cpu.dcache.ReadReq_misses::.cpu.data        33623                       # number of ReadReq misses
system.cpu.dcache.ReadReq_misses::total         33623                       # number of ReadReq misses
system.cpu.dcache.ReadReq_miss_latency::.cpu.data   1625440400                       # number of ReadReq miss cycles
system.cpu.dcache.ReadReq_miss_latency::total   1625440400                       # number of ReadReq miss cycles
system.cpu.dcache.ReadReq_accesses::.cpu.data       641721                       # number of ReadReq accesses(hits+misses)
system.cpu.dcache.ReadReq_accesses::total       641721                       # number of ReadReq accesses(hits+misses)
system.cpu.dcache.ReadReq_miss_rate::.cpu.data     0.052395                       # miss rate for ReadReq accesses
system.cpu.dcache.ReadReq_miss_rate::total     0.052395                       # miss rate for ReadReq accesses
system.cpu.dcache.ReadReq_avg_miss_latency::.cpu.data 48343.110371                       # average ReadReq miss latency
system.cpu.dcache.ReadReq_avg_miss_latency::total 48343.110371                       # average ReadReq miss latency
system.cpu.dcache.ReadReq_mshr_hits::.cpu.data        22912                       # number of ReadReq MSHR hits
system.cpu.dcache.ReadReq_mshr_hits::total        22912                       # number of ReadReq MSHR hits
system.cpu.dcache.ReadReq_mshr_misses::.cpu.data        10711                       # number of ReadReq MSHR misses
system.cpu.dcache.ReadReq_mshr_misses::total        10711                       # number of ReadReq MSHR misses
system.cpu.dcache.ReadReq_mshr_miss_latency::.cpu.data    487292800                       # number of ReadReq MSHR miss cycles
system.cpu.dcache.ReadReq_mshr_miss_latency::total    487292800                       # number of ReadReq MSHR miss cycles
system.cpu.dcache.ReadReq_mshr_miss_rate::.cpu.data     0.016691                       # mshr miss rate for ReadReq accesses
system.cpu.dcache.ReadReq_mshr_miss_rate::total     0.016691                       # mshr miss rate for ReadReq accesses
system.cpu.dcache.ReadReq_avg_mshr_miss_latency::.cpu.data 45494.613015                       # average ReadReq mshr miss latency
system.cpu.dcache.ReadReq_avg_mshr_miss_latency::total 45494.613015                       # average ReadReq mshr miss latency
system.cpu.dcache.WriteReq_hits::.cpu.data       220519                       # number of WriteReq hits
system.cpu.dcache.WriteReq_hits::total         220519                       # number of WriteReq hits
system.cpu.dcache.WriteReq_misses::.cpu.data         2051                       # number of WriteReq misses
system.cpu.dcache.WriteReq_misses::total         2051                       # number of WriteReq misses
system.cpu.dcache.WriteReq_miss_latency::.cpu.data    103149197                       # number of WriteReq miss cycles
system.cpu.dcache.WriteReq_miss_latency::total    103149197                       # number of WriteReq miss cycles
system.cpu.dcache.WriteReq_accesses::.cpu.data       222570                       # number of WriteReq accesses(hits+misses)
system.cpu.dcache.WriteReq_accesses::total       222570                       # number of WriteReq accesses(hits+misses)
system.cpu.dcache.WriteReq_miss_rate::.cpu.data     0.009215                       # miss rate for WriteReq accesses
system.cpu.dcache.WriteReq_miss_rate::total     0.009215                       # miss rate for WriteReq accesses
system.cpu.dcache.WriteReq_avg_miss_latency::.cpu.data 50292.148708                       # average WriteReq miss latency
system.cpu.dcache.WriteReq_avg_miss_latency::total 50292.148708                       # average WriteReq miss latency
system.cpu.dcache.WriteReq_mshr_hits::.cpu.data           54                       # number of WriteReq MSHR hits
system.cpu.dcache.WriteReq_mshr_hits::total           54                       # number of WriteReq MSHR hits
system.cpu.dcache.WriteReq_mshr_misses::.cpu.data         1997                       # number of WriteReq MSHR misses
[...]
system.l2cache.demand_mshr_miss_rate::.cpu.data     0.462069                       # mshr miss rate for demand accesses
system.l2cache.demand_mshr_miss_rate::.cpu.dcache.prefetcher     0.636364                       # mshr miss rate for demand accesses
system.l2cache.demand_mshr_miss_rate::total     0.470356                       # mshr miss rate for demand accesses
system.l2cache.overall_mshr_miss_rate::.cpu.inst     0.463127                       # mshr miss rate for overall accesses
system.l2cache.overall_mshr_miss_rate::.cpu.data     0.462069                       # mshr miss rate for overall accesses
system.l2cache.overall_mshr_miss_rate::.cpu.dcache.prefetcher     0.636364                       # mshr miss rate for overall accesses
system.l2cache.overall_mshr_miss_rate::.l2cache.prefetcher          inf                       # mshr miss rate for overall accesses
system.l2cache.overall_mshr_miss_rate::total     0.474308                       # mshr miss rate for overall accesses
system.l2cache.demand_avg_mshr_miss_latency::.cpu.inst 58183.439490                       # average overall mshr miss latency
system.l2cache.demand_avg_mshr_miss_latency::.cpu.data 58328.358209                       # average overall mshr miss latency
system.l2cache.demand_avg_mshr_miss_latency::.cpu.dcache.prefetcher 57227.714286                       # average overall mshr miss latency
system.l2cache.demand_avg_mshr_miss_latency::total 58168.016807                       # average overall mshr miss latency
system.l2cache.overall_avg_mshr_miss_latency::.cpu.inst 58183.439490                       # average overall mshr miss latency
system.l2cache.overall_avg_mshr_miss_latency::.cpu.data 58328.358209                       # average overall mshr miss latency
system.l2cache.overall_avg_mshr_miss_latency::.cpu.dcache.prefetcher 57227.714286                       # average overall mshr miss latency
system.l2cache.overall_avg_mshr_miss_latency::.l2cache.prefetcher 64998.500000                       # average overall mshr miss latency
system.l2cache.overall_avg_mshr_miss_latency::total 58224.937500                       # average overall mshr miss latency
system.l2cache.replacements                       245                       # number of replacements
system.l2cache.WritebackDirty_hits::.writebacks           40                       # number of WritebackDirty hits
system.l2cache.WritebackDirty_hits::total           40                       # number of WritebackDirty hits
system.l2cache.WritebackDirty_accesses::.writebacks           40                       # number of WritebackDirty accesses(hits+misses)
system.l2cache.WritebackDirty_accesses::total           40                       # number of WritebackDirty accesses(hits+misses)
system.l2cache.CleanEvict_mshr_misses::.writebacks            6                       # number of CleanEvict MSHR misses
system.l2cache.CleanEvict_mshr_misses::total            6                       # number of CleanEvict MSHR misses
system.l2cache.CleanEvict_mshr_miss_rate::.writebacks          inf                       # mshr miss rate for CleanEvict accesses
system.l2cache.CleanEvict_mshr_miss_rate::total          inf                       # mshr miss rate for CleanEvict accesses
system.l2cache.HardPFReq_mshr_misses::.l2cache.prefetcher            2                       # number of HardPFReq MSHR misses
system.l2cache.HardPFReq_mshr_misses::total            2                       # number of HardPFReq MSHR misses
system.l2cache.HardPFReq_mshr_miss_latency::.l2cache.prefetcher       129997                       # number of HardPFReq MSHR miss cycles
system.l2cache.HardPFReq_mshr_miss_latency::total       129997                       # number of HardPFReq MSHR miss cycles
system.l2cache.HardPFReq_mshr_miss_rate::.l2cache.prefetcher          inf                       # mshr miss rate for HardPFReq accesses
system.l2cache.HardPFReq_mshr_miss_rate::total          inf                       # mshr miss rate for HardPFReq accesses
system.l2cache.HardPFReq_avg_mshr_miss_latency::.l2cache.prefetcher 64998.500000                       # average HardPFReq mshr miss latency
system.l2cache.HardPFReq_avg_mshr_miss_latency::total 64998.500000                       # average HardPFReq mshr miss latency
system.l2cache.ReadExReq_hits::.cpu.data            2                       # number of ReadExReq hits
system.l2cache.ReadExReq_hits::total                2                       # number of ReadExReq hits
system.l2cache.ReadExReq_misses::.cpu.data            6                       # number of ReadExReq misses
system.l2cache.ReadExReq_misses::total              6                       # number of ReadExReq misses
system.l2cache.ReadExReq_miss_latency::.cpu.data       423600                       # number of ReadExReq miss cycles
system.l2cache.ReadExReq_miss_latency::total       423600                       # number of ReadExReq miss cycles
system.l2cache.ReadExReq_accesses::.cpu.data            8                       # number of ReadExReq accesses(hits+misses)
system.l2cache.ReadExReq_accesses::total            8                       # number of ReadExReq accesses(hits+misses)
system.l2cache.ReadExReq_miss_rate::.cpu.data     0.750000                       # miss rate for ReadExReq accesses
system.l2cache.ReadExReq_miss_rate::total     0.750000                       # miss rate for ReadExReq accesses
system.l2cache.ReadExReq_avg_miss_latency::.cpu.data        70600                       # average ReadExReq miss latency
system.l2cache.ReadExReq_avg_miss_latency::total        70600                       # average ReadExReq miss latency
system.l2cache.ReadExReq_mshr_misses::.cpu.data            6                       # number of ReadExReq MSHR misses
system.l2cache.ReadExReq_mshr_misses::total            6                       # number of ReadExReq MSHR misses
system.l2cache.ReadExReq_mshr_miss_latency::.cpu.data       375600                       # number of ReadExReq MSHR miss cycles
system.l2cache.ReadExReq_mshr_miss_latency::total       375600                       # number of ReadExReq MSHR miss cycles
system.l2cache.ReadExReq_mshr_miss_rate::.cpu.data     0.750000                       # mshr miss rate for ReadExReq accesses
system.l2cache.ReadExReq_mshr_miss_rate::total     0.750000                       # mshr miss rate for ReadExReq accesses
system.l2cache.ReadExReq_avg_mshr_miss_latency::.cpu.data        62600                       # average ReadExReq mshr miss latency
system.l2cache.ReadExReq_avg_mshr_miss_latency::total        62600                       # average ReadExReq mshr miss latency
system.l2cache.ReadSharedReq_hits::.cpu.inst          182                       # number of ReadSharedReq hits
system.l2cache.ReadSharedReq_hits::.cpu.data           76                       # number of ReadSharedReq hits
system.l2cache.ReadSharedReq_hits::.cpu.dcache.prefetcher            7                       # number of ReadSharedReq hits
system.l2cache.ReadSharedReq_hits::total          265                       # number of ReadSharedReq hits
system.l2cache.ReadSharedReq_misses::.cpu.inst          157                       # number of ReadSharedReq misses
system.l2cache.ReadSharedReq_misses::.cpu.data           61                       # number of ReadSharedReq misses
system.l2cache.ReadSharedReq_misses::.cpu.dcache.prefetcher           15                       # number of ReadSharedReq misses
system.l2cache.ReadSharedReq_misses::total          233                       # number of ReadSharedReq misses
system.l2cache.ReadSharedReq_miss_latency::.cpu.inst     10382800                       # number of ReadSharedReq miss cycles
system.l2cache.ReadSharedReq_miss_latency::.cpu.data      4020400                       # number of ReadSharedReq miss cycles
system.l2cache.ReadSharedReq_miss_latency::.cpu.dcache.prefetcher       924787                       # number of ReadSharedReq miss cycles
system.l2cache.ReadSharedReq_miss_latency::total     15327987                       # number of ReadSharedReq miss cycles
system.l2cache.ReadSharedReq_accesses::.cpu.inst          339                       # number of ReadSharedReq accesses(hits+misses)
system.l2cache.ReadSharedReq_accesses::.cpu.data          137                       # number of ReadSharedReq accesses(hits+misses)
system.l2cache.ReadSharedReq_accesses::.cpu.dcache.prefetcher           22                       # number of ReadSharedReq accesses(hits+misses)
system.l2cache.ReadSharedReq_accesses::total          498                       # number of ReadSharedReq accesses(hits+misses)
system.l2cache.ReadSharedReq_miss_rate::.cpu.inst     0.463127                       # miss rate for ReadSharedReq accesses
system.l2cache.ReadSharedReq_miss_rate::.cpu.data     0.445255                       # miss rate for ReadSharedReq accesses
system.l2cache.ReadSharedReq_miss_rate::.cpu.dcache.prefetcher     0.681818                       # miss rate for ReadSharedReq accesses
system.l2cache.ReadSharedReq_miss_rate::total     0.467871                       # miss rate for ReadSharedReq accesses
system.l2cache.ReadSharedReq_avg_miss_latency::.cpu.inst 66132.484076                       # average ReadSharedReq miss latency
system.l2cache.ReadSharedReq_avg_miss_latency::.cpu.data 65908.196721                       # average ReadSharedReq miss latency
system.l2cache.ReadSharedReq_avg_miss_latency::.cpu.dcache.prefetcher 61652.466667                       # average ReadSharedReq miss latency
system.l2cache.ReadSharedReq_avg_miss_latency::total 65785.351931                       # average ReadSharedReq miss latency
system.l2cache.ReadSharedReq_mshr_hits::.cpu.dcache.prefetcher            1                       # number of ReadSharedReq MSHR hits
system.l2cache.ReadSharedReq_mshr_hits::total            1                       # number of ReadSharedReq MSHR hits
system.l2cache.ReadSharedReq_mshr_misses::.cpu.inst          157                       # number of ReadSharedReq MSHR misses
system.l2cache.ReadSharedReq_mshr_misses::.cpu.data           61                       # number of ReadSharedReq MSHR misses
system.l2cache.ReadSharedReq_mshr_misses::.cpu.dcache.prefetcher           14                       # number of ReadSharedReq MSHR misses
system.l2cache.ReadSharedReq_mshr_misses::total          232                       # number of ReadSharedReq MSHR misses
system.l2cache.ReadSharedReq_mshr_miss_latency::.cpu.inst      9134800                       # number of ReadSharedReq MSHR miss cycles
system.l2cache.ReadSharedReq_mshr_miss_latency::.cpu.data      3532400                       # number of ReadSharedReq MSHR miss cycles
system.l2cache.ReadSharedReq_mshr_miss_latency::.cpu.dcache.prefetcher       801188                       # number of ReadSharedReq MSHR miss cycles
system.l2cache.ReadSharedReq_mshr_miss_latency::total     13468388                       # number of ReadSharedReq MSHR miss cycles
system.l2cache.ReadSharedReq_mshr_miss_rate::.cpu.inst     0.463127                       # mshr miss rate for ReadSharedReq accesses
system.l2cache.ReadSharedReq_mshr_miss_rate::.cpu.data     0.445255                       # mshr miss rate for ReadSharedReq accesses
system.l2cache.ReadSharedReq_mshr_miss_rate::.cpu.dcache.prefetcher     0.636364                       # mshr miss rate for ReadSharedReq accesses
system.l2cache.ReadSharedReq_mshr_miss_rate::total     0.465863                       # mshr miss rate for ReadSharedReq accesses
system.l2cache.ReadSharedReq_avg_mshr_miss_latency::.cpu.inst 58183.439490                       # average ReadSharedReq mshr miss latency
system.l2cache.ReadSharedReq_avg_mshr_miss_latency::.cpu.data 57908.196721                       # average ReadSharedReq mshr miss latency
system.l2cache.ReadSharedReq_avg_mshr_miss_latency::.cpu.dcache.prefetcher 57227.714286                       # average ReadSharedReq mshr miss latency
system.l2cache.ReadSharedReq_avg_mshr_miss_latency::total 58053.396552                       # average ReadSharedReq mshr miss latency
system.l2cache.prefetcher.pwrStateResidencyTicks::UNDEFINED    117165600                       # Cumulative time (in ticks) in various power states
system.l2cache.tags.pwrStateResidencyTicks::UNDEFINED    117165600                       # Cumulative time (in ticks) in various power states
system.l2cache.tags.tagsinuse                    4096                       # Cycle average of tags in use
system.l2cache.tags.total_refs                  13647                       # Total number of references to valid blocks.
system.l2cache.tags.sampled_refs                 4341                       # Sample count of references to valid blocks.
system.l2cache.tags.avg_refs                 3.143746                       # Average number of references to valid blocks.
system.l2cache.tags.warmup_cycle                    0                       # Cycle when the warmup percentage was hit.
system.l2cache.tags.occ_blocks::.writebacks    36.765610                       # Average occupied blocks per requestor
system.l2cache.tags.occ_blocks::.cpu.inst  1117.736859                       # Average occupied blocks per requestor
system.l2cache.tags.occ_blocks::.cpu.data  1869.538963                       # Average occupied blocks per requestor
system.l2cache.tags.occ_blocks::.cpu.dcache.prefetcher   938.164423                       # Average occupied blocks per requestor
system.l2cache.tags.occ_blocks::.l2cache.prefetcher   133.794144                       # Average occupied blocks per requestor
system.l2cache.tags.occ_percent::.writebacks     0.008976                       # Average percentage of cache occupancy
system.l2cache.tags.occ_percent::.cpu.inst     0.272885                       # Average percentage of cache occupancy
system.l2cache.tags.occ_percent::.cpu.data     0.456430                       # Average percentage of cache occupancy
system.l2cache.tags.occ_percent::.cpu.dcache.prefetcher     0.229044                       # Average percentage of cache occupancy
system.l2cache.tags.occ_percent::.l2cache.prefetcher     0.032665                       # Average percentage of cache occupancy
system.l2cache.tags.occ_percent::total              1                       # Average percentage of cache occupancy
system.l2cache.tags.occ_task_id_blocks::1022         1008                       # Occupied blocks per task id
system.l2cache.tags.occ_task_id_blocks::1024         3088                       # Occupied blocks per task id
system.l2cache.tags.age_task_id_blocks_1022::0           11                       # Occupied blocks per task id
system.l2cache.tags.age_task_id_blocks_1022::1            2                       # Occupied blocks per task id
system.l2cache.tags.age_task_id_blocks_1022::2            4                       # Occupied blocks per task id
system.l2cache.tags.age_task_id_blocks_1022::4          991                       # Occupied blocks per task id
system.l2cache.tags.age_task_id_blocks_1024::0          164                       # Occupied blocks per task id
system.l2cache.tags.age_task_id_blocks_1024::1           28                       # Occupied blocks per task id
system.l2cache.tags.age_task_id_blocks_1024::2           36                       # Occupied blocks per task id
system.l2cache.tags.age_task_id_blocks_1024::4         2860                       # Occupied blocks per task id
system.l2cache.tags.occ_task_id_percent::1022     0.246094                       # Percentage of cache occupancy per task id
system.l2cache.tags.occ_task_id_percent::1024     0.753906                       # Percentage of cache occupancy per task id
system.l2cache.tags.tag_accesses                 8333                       # Number of tag accesses
system.l2cache.tags.data_accesses                8333                       # Number of data accesses
system.mem_ctrl.pwrStateResidencyTicks::UNDEFINED    117165600                       # Cumulative time (in ticks) in various power states
system.mem_ctrl.bytes_read::.cpu.inst            9984                       # Number of bytes read from this memory
system.mem_ctrl.bytes_read::.cpu.data            4288                       # Number of bytes read from this memory
system.mem_ctrl.bytes_read::.cpu.dcache.prefetcher          896                       # Number of bytes read from this memory
system.mem_ctrl.bytes_read::.l2cache.prefetcher          128                       # Number of bytes read from this memory
system.mem_ctrl.bytes_read::total               15296                       # Number of bytes read from this memory
system.mem_ctrl.bytes_inst_read::.cpu.inst         9984                       # Number of instructions bytes read from this memory
system.mem_ctrl.bytes_inst_read::total           9984                       # Number of instructions bytes read from this memory
system.mem_ctrl.bytes_written::.writebacks          704                       # Number of bytes written to this memory
system.mem_ctrl.bytes_written::total              704                       # Number of bytes written to this memory
system.mem_ctrl.num_reads::.cpu.inst              156                       # Number of read requests responded to by this memory
system.mem_ctrl.num_reads::.cpu.data               67                       # Number of read requests responded to by this memory
system.mem_ctrl.num_reads::.cpu.dcache.prefetcher           14                       # Number of read requests responded to by this memory
system.mem_ctrl.num_reads::.l2cache.prefetcher            2                       # Number of read requests responded to by this memory
system.mem_ctrl.num_reads::total                  239                       # Number of read requests responded to by this memory
system.mem_ctrl.num_writes::.writebacks            11                       # Number of write requests responded to by this memory
system.mem_ctrl.num_writes::total                  11                       # Number of write requests responded to by this memory
system.mem_ctrl.bw_read::.cpu.inst           85212725                       # Total read bandwidth from this memory (bytes/s)
system.mem_ctrl.bw_read::.cpu.data           36597773                       # Total read bandwidth from this memory (bytes/s)
system.mem_ctrl.bw_read::.cpu.dcache.prefetcher      7647296                       # Total read bandwidth from this memory (bytes/s)
system.mem_ctrl.bw_read::.l2cache.prefetcher      1092471                       # Total read bandwidth from this memory (bytes/s)
system.mem_ctrl.bw_read::total              130550264                       # Total read bandwidth from this memory (bytes/s)
system.mem_ctrl.bw_inst_read::.cpu.inst      85212725                       # Instruction read bandwidth from this memory (bytes/s)
system.mem_ctrl.bw_inst_read::total          85212725                       # Instruction read bandwidth from this memory (bytes/s)
system.mem_ctrl.bw_write::.writebacks         6008590                       # Write bandwidth from this memory (bytes/s)
system.mem_ctrl.bw_write::total               6008590                       # Write bandwidth from this memory (bytes/s)
system.mem_ctrl.bw_total::.writebacks         6008590                       # Total bandwidth to/from this memory (bytes/s)
system.mem_ctrl.bw_total::.cpu.inst          85212725                       # Total bandwidth to/from this memory (bytes/s)
system.mem_ctrl.bw_total::.cpu.data          36597773                       # Total bandwidth to/from this memory (bytes/s)
system.mem_ctrl.bw_total::.cpu.dcache.prefetcher      7647296                       # Total bandwidth to/from this memory (bytes/s)
system.mem_ctrl.bw_total::.l2cache.prefetcher      1092471                       # Total bandwidth to/from this memory (bytes/s)
system.mem_ctrl.bw_total::total             136558853                       # Total bandwidth to/from this memory (bytes/s)

---------- End Simulation Statistics   ----------
