
---------- Begin Simulation Statistics ----------
final_tick                                 1358747200                       # Number of ticks from beginning of simulation (restored from checkpoints and never reset)
host_inst_rate                                 155944                       # Simulator instruction rate (inst/s)
host_mem_usage                                4406860                       # Number of bytes of host memory used
host_op_rate                                   287129                       # Simulator op (including micro ops) rate (op/s)
host_seconds                                    18.92                       # Real time elapsed on the host
host_tick_rate                               71828047                       # Simulator tick rate (ticks/s)
sim_freq                                 1000000000000                       # Frequency of simulated ticks
sim_insts                                     2949920                       # Number of instructions simulated
sim_ops                                       5431515                       # Number of ops (including micro ops) simulated
sim_seconds                                  0.001359                       # Number of seconds simulated
sim_ticks                                  1358747200                       # Number of ticks simulated
system.cpu.branchPred.BTBCorrect                    0                       # Number of correct BTB predictions (this stat may not work properly.
system.cpu.branchPred.BTBHitPct              0.000000                       # BTB Hit Percentage
system.cpu.branchPred.BTBHits                       0                       # Number of BTB hits
system.cpu.branchPred.BTBLookups               587158                       # Number of BTB lookups
system.cpu.branchPred.RASInCorrect                 10                       # Number of incorrect RAS predictions.
system.cpu.branchPred.condIncorrect             24664                       # Number of conditional branches incorrect
system.cpu.branchPred.condPredicted            601217                       # Number of conditional branches predicted
system.cpu.branchPred.indirectHits             307942                       # Number of indirect target hits.
system.cpu.branchPred.indirectLookups          587158                       # Number of indirect predictor lookups.
system.cpu.branchPred.indirectMisses           279216                       # Number of indirect misses.
system.cpu.branchPred.lookups                  656795                       # Number of BP lookups
system.cpu.branchPred.usedRAS                   25947                       # Number of times the RAS was used to get a target.
system.cpu.branchPredindirectMispredicted        12273                       # Number of mispredicted indirect branches.
system.cpu.cc_regfile_reads                   3366666                       # number of cc regfile reads
system.cpu.cc_regfile_writes                  2460566                       # number of cc regfile writes
system.cpu.commit.amos                              0                       # Number of atomic instructions committed
system.cpu.commit.branchMispredicts             24778                       # The number of times a branch was mispredicted
system.cpu.commit.branches                     510160                       # Number of branches committed
system.cpu.commit.bw_lim_events                920368                       # number cycles where commit BW limit reached
system.cpu.commit.commitNonSpecStalls             760                       # The number of times commit has been forced to stall to communicate backwards
system.cpu.commit.commitSquashedInsts          912748                       # The number of squashed insts skipped by commit
system.cpu.commit.committedInsts              2949920                       # Number of instructions committed
system.cpu.commit.committedOps                5431515                       # Number of ops (including micro ops) committed
system.cpu.commit.committed_per_cycle::samples      2985990                       # Number of insts commited each cycle
system.cpu.commit.committed_per_cycle::mean     1.819000                       # Number of insts commited each cycle
system.cpu.commit.committed_per_cycle::stdev     1.738972                       # Number of insts commited each cycle
system.cpu.commit.committed_per_cycle::underflows            0      0.00%      0.00% # Number of insts commited each cycle
system.cpu.commit.committed_per_cycle::0      1216513     40.74%     40.74% # Number of insts commited each cycle
system.cpu.commit.committed_per_cycle::1       264086      8.84%     49.58% # Number of insts commited each cycle
system.cpu.commit.committed_per_cycle::2       269112      9.01%     58.60% # Number of insts commited each cycle
system.cpu.commit.committed_per_cycle::3       315911     10.58%     69.18% # Number of insts commited each cycle
system.cpu.commit.committed_per_cycle::4       920368     30.82%    100.00% # Number of insts commited each cycle
system.cpu.commit.committed_per_cycle::overflows            0      0.00%    100.00% # Number of insts commited each cycle
system.cpu.commit.committed_per_cycle::min_value            0                       # Number of insts commited each cycle
system.cpu.commit.committed_per_cycle::max_value            4                       # Number of insts commited each cycle
system.cpu.commit.committed_per_cycle::total      2985990                       # Number of insts commited each cycle
system.cpu.commit.fp_insts                     177337                       # Number of committed floating point instructions.
system.cpu.commit.function_calls                23725                       # Number of function calls committed.
system.cpu.commit.int_insts                   5294105                       # Number of committed integer instructions.
system.cpu.commit.loads                        725162                       # Number of loads committed
system.cpu.commit.membars                           1                       # Number of memory barriers committed
system.cpu.commit.op_class_0::No_OpClass        28762      0.53%      0.53% # Class of committed instruction
system.cpu.commit.op_class_0::IntAlu          4171098     76.79%     77.32% # Class of committed instruction
system.cpu.commit.op_class_0::IntMult            5806      0.11%     77.43% # Class of committed instruction
system.cpu.commit.op_class_0::IntDiv            38160      0.70%     78.13% # Class of committed instruction
system.cpu.commit.op_class_0::FloatAdd           6996      0.13%     78.26% # Class of committed instruction
system.cpu.commit.op_class_0::FloatCmp              0      0.00%     78.26% # Class of committed instruction
system.cpu.commit.op_class_0::FloatCvt           1248      0.02%     78.29% # Class of committed instruction
system.cpu.commit.op_class_0::FloatMult             0      0.00%     78.29% # Class of committed instruction
system.cpu.commit.op_class_0::FloatMultAcc            0      0.00%     78.29% # Class of committed instruction
system.cpu.commit.op_class_0::FloatDiv              0      0.00%     78.29% # Class of committed instruction
system.cpu.commit.op_class_0::FloatMisc             0      0.00%     78.29% # Class of committed instruction
system.cpu.commit.op_class_0::FloatSqrt             0      0.00%     78.29% # Class of committed instruction
system.cpu.commit.op_class_0::SimdAdd            6274      0.12%     78.40% # Class of committed instruction
system.cpu.commit.op_class_0::SimdAddAcc            0      0.00%     78.40% # Class of committed instruction
system.cpu.commit.op_class_0::SimdAlu           27729      0.51%     78.91% # Class of committed instruction
system.cpu.commit.op_class_0::SimdCmp               0      0.00%     78.91% # Class of committed instruction
system.cpu.commit.op_class_0::SimdCvt           28646      0.53%     79.44% # Class of committed instruction
system.cpu.commit.op_class_0::SimdMisc          43527      0.80%     80.24% # Class of committed instruction
system.cpu.commit.op_class_0::SimdMult              0      0.00%     80.24% # Class of committed instruction
system.cpu.commit.op_class_0::SimdMultAcc            0      0.00%     80.24% # Class of committed instruction
system.cpu.commit.op_class_0::SimdShift          1242      0.02%     80.26% # Class of committed instruction
system.cpu.commit.op_class_0::SimdShiftAcc            0      0.00%     80.26% # Class of committed instruction
system.cpu.commit.op_class_0::SimdDiv               0      0.00%     80.26% # Class of committed instruction
system.cpu.commit.op_class_0::SimdSqrt              0      0.00%     80.26% # Class of committed instruction
system.cpu.commit.op_class_0::SimdFloatAdd            0      0.00%     80.26% # Class of committed instruction
system.cpu.commit.op_class_0::SimdFloatAlu            0      0.00%     80.26% # Class of committed instruction
system.cpu.commit.op_class_0::SimdFloatCmp            0      0.00%     80.26% # Class of committed instruction
system.cpu.commit.op_class_0::SimdFloatCvt            0      0.00%     80.26% # Class of committed instruction
system.cpu.commit.op_class_0::SimdFloatDiv            0      0.00%     80.26% # Class of committed instruction
system.cpu.commit.op_class_0::SimdFloatMisc            0      0.00%     80.26% # Class of committed instruction
system.cpu.commit.op_class_0::SimdFloatMult            0      0.00%     80.26% # Class of committed instruction
system.cpu.commit.op_class_0::SimdFloatMultAcc            0      0.00%     80.26% # Class of committed instruction
system.cpu.commit.op_class_0::SimdFloatSqrt            0      0.00%     80.26% # Class of committed instruction
system.cpu.commit.op_class_0::SimdReduceAdd            0      0.00%     80.26% # Class of committed instruction
system.cpu.commit.op_class_0::SimdReduceAlu            0      0.00%     80.26% # Class of committed instruction
system.cpu.commit.op_class_0::SimdReduceCmp            0      0.00%     80.26% # Class of committed instruction
system.cpu.commit.op_class_0::SimdFloatReduceAdd            0      0.00%     80.26% # Class of committed instruction
system.cpu.commit.op_class_0::SimdFloatReduceCmp            0      0.00%     80.26% # Class of committed instruction
system.cpu.commit.op_class_0::SimdAes               0      0.00%     80.26% # Class of committed instruction
system.cpu.commit.op_class_0::SimdAesMix            0      0.00%     80.26% # Class of committed instruction
system.cpu.commit.op_class_0::SimdSha1Hash            0      0.00%     80.26% # Class of committed instruction
system.cpu.commit.op_class_0::SimdSha1Hash2            0      0.00%     80.26% # Class of committed instruction
system.cpu.commit.op_class_0::SimdSha256Hash            0      0.00%     80.26% # Class of committed instruction
system.cpu.commit.op_class_0::SimdSha256Hash2            0      0.00%     80.26% # Class of committed instruction
system.cpu.commit.op_class_0::SimdShaSigma2            0      0.00%     80.26% # Class of committed instruction
system.cpu.commit.op_class_0::SimdShaSigma3            0      0.00%     80.26% # Class of committed instruction
system.cpu.commit.op_class_0::SimdPredAlu            0      0.00%     80.26% # Class of committed instruction
system.cpu.commit.op_class_0::MemRead          693480     12.77%     93.03% # Class of committed instruction
system.cpu.commit.op_class_0::MemWrite         330054      6.08%     99.11% # Class of committed instruction
system.cpu.commit.op_class_0::FloatMemRead        31682      0.58%     99.69% # Class of committed instruction
system.cpu.commit.op_class_0::FloatMemWrite        16811      0.31%    100.00% # Class of committed instruction
system.cpu.commit.op_class_0::IprAccess             0      0.00%    100.00% # Class of committed instruction
system.cpu.commit.op_class_0::InstPrefetch            0      0.00%    100.00% # Class of committed instruction
system.cpu.commit.op_class_0::total           5431515                       # Class of committed instruction
system.cpu.commit.refs                        1072027                       # Number of memory references committed
system.cpu.commit.swp_count                         0                       # Number of s/w prefetches committed
system.cpu.commit.vec_insts                         0                       # Number of committed Vector instructions.
system.cpu.committedInsts                     2949920                       # Number of Instructions Simulated
system.cpu.committedOps                       5431515                       # Number of Ops (including micro ops) Simulated
system.cpu.cpi                               1.151512                       # CPI: Cycles Per Instruction
system.cpu.cpi_total                         1.151512                       # CPI: Total CPI of All Threads
system.cpu.dcache.prefetcher.num_hwpf_issued         8284                       # number of hwpf issued
system.cpu.dcache.prefetcher.pfBufferHit        34620                       # number of redundant prefetches already in prefetch queue
system.cpu.dcache.prefetcher.pfIdentified        50445                       # number of prefetch candidates identified
system.cpu.dcache.prefetcher.pfInCache              0                       # number of redundant prefetches already in cache/mshr dropped
system.cpu.dcache.prefetcher.pfRemovedFull            0                       # number of prefetches dropped due to prefetch queue size
system.cpu.dcache.prefetcher.pfSpanPage          4535                       # number of prefetches that crossed the page
system.cpu.decode.BlockedCycles               1055990                       # Number of cycles decode is blocked
system.cpu.decode.DecodedInsts                6563704                       # Number of instructions handled by decode
system.cpu.decode.IdleCycles                   418866                       # Number of cycles decode is idle
system.cpu.decode.RunCycles                   1635618                       # Number of cycles decode is running
system.cpu.decode.SquashCycles                  24847                       # Number of cycles decode is squashing
system.cpu.decode.UnblockCycles                 98742                       # Number of cycles decode is unblocking
system.cpu.dtb.rdAccesses                      813195                       # TLB accesses on read requests
system.cpu.dtb.rdMisses                          1995                       # TLB misses on read requests
system.cpu.dtb.wrAccesses                      367300                       # TLB accesses on write requests
system.cpu.dtb.wrMisses                           166                       # TLB misses on write requests
system.cpu.fetch.Branches                      656795                       # Number of branches that fetch encountered
system.cpu.fetch.CacheLines                    353070                       # Number of cache lines fetched
system.cpu.fetch.Cycles                       2763762                       # Number of cycles fetch has run and was not squashing or blocked
system.cpu.fetch.IcacheSquashes                  4716                       # Number of outstanding Icache misses that were squashed
system.cpu.fetch.Insts                        3737210                       # Number of instructions fetch has processed
system.cpu.fetch.MiscStallCycles                  158                       # Number of cycles fetch has spent waiting on interrupts, or bad addresses, or out of MSHRs
system.cpu.fetch.PendingQuiesceStallCycles            8                       # Number of stall cycles due to pending quiesce instructions
system.cpu.fetch.PendingTrapStallCycles           766                       # Number of stall cycles due to pending traps
system.cpu.fetch.SquashCycles                   49694                       # Number of cycles fetch has spent squashing
system.cpu.fetch.branchRate                  0.193353                       # Number of branch fetches per cycle
system.cpu.fetch.icacheStallCycles             444522                       # Number of cycles fetch is stalled on an Icache miss
system.cpu.fetch.predictedBranches             333889                       # Number of branches that fetch has predicted taken
system.cpu.fetch.rate                        1.100193                       # Number of inst fetches per cycle
system.cpu.fetch.rateDist::samples            3234063                       # Number of instructions fetched each cycle (Total)
system.cpu.fetch.rateDist::mean              2.116704                       # Number of instructions fetched each cycle (Total)
system.cpu.fetch.rateDist::stdev             1.918984                       # Number of instructions fetched each cycle (Total)
system.cpu.fetch.rateDist::underflows               0      0.00%      0.00% # Number of instructions fetched each cycle (Total)
system.cpu.fetch.rateDist::0                  1374549     42.50%     42.50% # Number of instructions fetched each cycle (Total)
system.cpu.fetch.rateDist::1                   104957      3.25%     45.75% # Number of instructions fetched each cycle (Total)
system.cpu.fetch.rateDist::2                    82493      2.55%     48.30% # Number of instructions fetched each cycle (Total)
system.cpu.fetch.rateDist::3                   112645      3.48%     51.78% # Number of instructions fetched each cycle (Total)
system.cpu.fetch.rateDist::4                  1559419     48.22%    100.00% # Number of instructions fetched each cycle (Total)
system.cpu.fetch.rateDist::overflows                0      0.00%    100.00% # Number of instructions fetched each cycle (Total)
system.cpu.fetch.rateDist::min_value                0                       # Number of instructions fetched each cycle (Total)
system.cpu.fetch.rateDist::max_value                4                       # Number of instructions fetched each cycle (Total)
system.cpu.fetch.rateDist::total              3234063                       # Number of instructions fetched each cycle (Total)
system.cpu.fp_regfile_reads                    294618                       # number of floating regfile reads
system.cpu.fp_regfile_writes                   157396                       # number of floating regfile writes
system.cpu.fuPool.fu_ticks_busy::IntALU(0)    307512000                       # Total ticks fu was busy
system.cpu.fuPool.fu_ticks_busy::IntALU(1)    307512000                       # Total ticks fu was busy
system.cpu.fuPool.fu_ticks_busy::IntALU(2)    307512000                       # Total ticks fu was busy
system.cpu.fuPool.fu_ticks_busy::IntALU(3)    307512000                       # Total ticks fu was busy
system.cpu.fuPool.fu_ticks_busy::IntALU(4)    307512000                       # Total ticks fu was busy
system.cpu.fuPool.fu_ticks_busy::IntALU(5)    307512000                       # Total ticks fu was busy
system.cpu.fuPool.fu_ticks_busy::IntMultDiv(0)      9626400                       # Total ticks fu was busy
system.cpu.fuPool.fu_ticks_busy::IntMultDiv(1)      9625600                       # Total ticks fu was busy
system.cpu.fuPool.fu_ticks_busy::FP_ALU(0)       988400                       # Total ticks fu was busy
system.cpu.fuPool.fu_ticks_busy::FP_ALU(1)       988400                       # Total ticks fu was busy
system.cpu.fuPool.fu_ticks_busy::FP_ALU(2)       987600                       # Total ticks fu was busy
system.cpu.fuPool.fu_ticks_busy::FP_ALU(3)       987600                       # Total ticks fu was busy
system.cpu.fuPool.fu_ticks_busy::FP_MultDiv(0)            0                       # Total ticks fu was busy
system.cpu.fuPool.fu_ticks_busy::FP_MultDiv(1)            0                       # Total ticks fu was busy
system.cpu.fuPool.fu_ticks_busy::SIMD_Unit(0)     11352800                       # Total ticks fu was busy
system.cpu.fuPool.fu_ticks_busy::SIMD_Unit(1)     11526800                       # Total ticks fu was busy
system.cpu.fuPool.fu_ticks_busy::SIMD_Unit(2)     11722800                       # Total ticks fu was busy
system.cpu.fuPool.fu_ticks_busy::SIMD_Unit(3)     11542400                       # Total ticks fu was busy
system.cpu.fuPool.fu_ticks_busy::PredALU(0)            0                       # Total ticks fu was busy
system.cpu.fuPool.fu_ticks_busy::RdWrPort(0)    118721200                       # Total ticks fu was busy
system.cpu.fuPool.fu_ticks_busy::RdWrPort(1)    119294800                       # Total ticks fu was busy
system.cpu.fuPool.fu_ticks_busy::RdWrPort(2)    119332400                       # Total ticks fu was busy
system.cpu.fuPool.fu_ticks_busy::RdWrPort(3)    119096000                       # Total ticks fu was busy
system.cpu.fuPool.fu_ticks_busy::IprPort(0)            0                       # Total ticks fu was busy
system.cpu.fuPool.fu_ticks_busy::total     2390865200                       # Total ticks fu was busy
system.cpu.icache.prefetcher.num_hwpf_issued            0                       # number of hwpf issued
system.cpu.icache.prefetcher.pfBufferHit            0                       # number of redundant prefetches already in prefetch queue
system.cpu.icache.prefetcher.pfIdentified            0                       # number of prefetch candidates identified
system.cpu.icache.prefetcher.pfInCache              0                       # number of redundant prefetches already in cache/mshr dropped
system.cpu.icache.prefetcher.pfRemovedFull            0                       # number of prefetches dropped due to prefetch queue size
system.cpu.icache.prefetcher.pfSpanPage             0                       # number of prefetches that crossed the page
system.cpu.idleCycles                          162806                       # Total number of cycles that the CPU has spent unscheduled due to idling
system.cpu.iew.branchMispredicts                29273                       # Number of branch mispredicts detected at execute
system.cpu.iew.exec_branches                   542018                       # Number of branches executed
system.cpu.iew.exec_nop                             0                       # number of nop insts executed
system.cpu.iew.exec_rate                     1.759582                       # Inst execution rate
system.cpu.iew.exec_refs                      1177985                       # number of memory reference insts executed
system.cpu.iew.exec_stores                     367287                       # Number of stores executed
system.cpu.iew.exec_swp                             0                       # number of swp insts executed
system.cpu.iew.iewBlockCycles                  700756                       # Number of cycles IEW is blocking
system.cpu.iew.iewDispLoadInsts                841686                       # Number of dispatched load instructions
system.cpu.iew.iewDispNonSpecInsts                956                       # Number of dispatched non-speculative instructions
system.cpu.iew.iewDispSquashedInsts               549                       # Number of squashed instructions skipped by dispatch
system.cpu.iew.iewDispStoreInsts               377905                       # Number of dispatched store instructions
system.cpu.iew.iewDispatchedInsts             6344209                       # Number of instructions dispatched to IQ
system.cpu.iew.iewExecLoadInsts                810698                       # Number of load instructions executed
system.cpu.iew.iewExecSquashedInsts             35003                       # Number of squashed instructions skipped in execute
system.cpu.iew.iewExecutedInsts               5977071                       # Number of executed instructions
system.cpu.iew.iewIQFullEvents                   3422                       # Number of times the IQ has become full, causing a stall
system.cpu.iew.iewIdleCycles                        0                       # Number of cycles IEW is idle
system.cpu.iew.iewLSQFullEvents                 10372                       # Number of times the LSQ has become full, causing a stall
system.cpu.iew.iewSquashCycles                  24847                       # Number of cycles IEW is squashing
system.cpu.iew.iewUnblockCycles                 16676                       # Number of cycles IEW is unblocking
system.cpu.iew.lsq.thread0.blockedLoads             0                       # Number of blocked loads due to partial load-store forwarding
system.cpu.iew.lsq.thread0.cacheBlocked           620                       # Number of times an access to memory failed due to the cache being blocked
system.cpu.iew.lsq.thread0.forwLoads            70636                       # Number of loads that had data forwarded from stores
system.cpu.iew.lsq.thread0.ignoredResponses          349                       # Number of memory responses ignored because the instruction is squashed
system.cpu.iew.lsq.thread0.invAddrLoads             0                       # Number of loads ignored due to an invalid address
system.cpu.iew.lsq.thread0.invAddrSwpfs             0                       # Number of software prefetches ignored due to an invalid address
system.cpu.iew.lsq.thread0.memOrderViolation           82                       # Number of memory ordering violations
system.cpu.iew.lsq.thread0.rescheduledLoads           18                       # Number of loads that were rescheduled
system.cpu.iew.lsq.thread0.squashedLoads       116522                       # Number of loads squashed
system.cpu.iew.lsq.thread0.squashedStores        31039                       # Number of stores squashed
system.cpu.iew.memOrderViolationEvents             82                       # Number of memory order violations
system.cpu.iew.predictedNotTakenIncorrect        20980                       # Number of branches that were predicted not taken incorrectly
system.cpu.iew.predictedTakenIncorrect           8293                       # Number of branches that were predicted taken incorrectly
system.cpu.iew.wb_consumers                   8022466                       # num instructions consuming a value
system.cpu.iew.wb_count                       5954795                       # cumulative count of insts written-back
system.cpu.iew.wb_fanout                     0.574500                       # average fanout of values written-back
system.cpu.iew.wb_producers                   4608903                       # num instructions producing a value
system.cpu.iew.wb_rate                       1.753025                       # insts written-back per cycle
system.cpu.iew.wb_sent                        5961808                       # cumulative count of insts sent to commit
system.cpu.int_regfile_reads                  9164448                       # number of integer regfile reads
system.cpu.int_regfile_writes                 4966103                       # number of integer regfile writes
system.cpu.ipc                               0.868423                       # IPC: Instructions Per Cycle
system.cpu.ipc_total                         0.868423                       # IPC: Total IPC of All Threads
system.cpu.iq.FU_type_0::No_OpClass             34911      0.58%      0.58% # Type of FU issued
system.cpu.iq.FU_type_0::IntAlu               4612682     76.72%     77.30% # Type of FU issued
system.cpu.iq.FU_type_0::IntMult                 5845      0.10%     77.40% # Type of FU issued
system.cpu.iq.FU_type_0::IntDiv                 42285      0.70%     78.10% # Type of FU issued
system.cpu.iq.FU_type_0::FloatAdd                8586      0.14%     78.25% # Type of FU issued
system.cpu.iq.FU_type_0::FloatCmp                   0      0.00%     78.25% # Type of FU issued
system.cpu.iq.FU_type_0::FloatCvt                1294      0.02%     78.27% # Type of FU issued
system.cpu.iq.FU_type_0::FloatMult                  0      0.00%     78.27% # Type of FU issued
system.cpu.iq.FU_type_0::FloatMultAcc               0      0.00%     78.27% # Type of FU issued
system.cpu.iq.FU_type_0::FloatDiv                   0      0.00%     78.27% # Type of FU issued
system.cpu.iq.FU_type_0::FloatMisc                  0      0.00%     78.27% # Type of FU issued
system.cpu.iq.FU_type_0::FloatSqrt                  0      0.00%     78.27% # Type of FU issued
system.cpu.iq.FU_type_0::SimdAdd                 6931      0.12%     78.38% # Type of FU issued
system.cpu.iq.FU_type_0::SimdAddAcc                 0      0.00%     78.38% # Type of FU issued
system.cpu.iq.FU_type_0::SimdAlu                31485      0.52%     78.91% # Type of FU issued
system.cpu.iq.FU_type_0::SimdCmp                    0      0.00%     78.91% # Type of FU issued
system.cpu.iq.FU_type_0::SimdCvt                30513      0.51%     79.42% # Type of FU issued
system.cpu.iq.FU_type_0::SimdMisc               44114      0.73%     80.15% # Type of FU issued
system.cpu.iq.FU_type_0::SimdMult                   0      0.00%     80.15% # Type of FU issued
system.cpu.iq.FU_type_0::SimdMultAcc                0      0.00%     80.15% # Type of FU issued
system.cpu.iq.FU_type_0::SimdShift               2319      0.04%     80.19% # Type of FU issued
system.cpu.iq.FU_type_0::SimdShiftAcc               0      0.00%     80.19% # Type of FU issued
system.cpu.iq.FU_type_0::SimdDiv                    0      0.00%     80.19% # Type of FU issued
system.cpu.iq.FU_type_0::SimdSqrt                   0      0.00%     80.19% # Type of FU issued
system.cpu.iq.FU_type_0::SimdFloatAdd               0      0.00%     80.19% # Type of FU issued
system.cpu.iq.FU_type_0::SimdFloatAlu               0      0.00%     80.19% # Type of FU issued
system.cpu.iq.FU_type_0::SimdFloatCmp               0      0.00%     80.19% # Type of FU issued
system.cpu.iq.FU_type_0::SimdFloatCvt               0      0.00%     80.19% # Type of FU issued
system.cpu.iq.FU_type_0::SimdFloatDiv               0      0.00%     80.19% # Type of FU issued
system.cpu.iq.FU_type_0::SimdFloatMisc              0      0.00%     80.19% # Type of FU issued
system.cpu.iq.FU_type_0::SimdFloatMult              0      0.00%     80.19% # Type of FU issued
system.cpu.iq.FU_type_0::SimdFloatMultAcc            0      0.00%     80.19% # Type of FU issued
system.cpu.iq.FU_type_0::SimdFloatSqrt              0      0.00%     80.19% # Type of FU issued
system.cpu.iq.FU_type_0::SimdReduceAdd              0      0.00%     80.19% # Type of FU issued
system.cpu.iq.FU_type_0::SimdReduceAlu              0      0.00%     80.19% # Type of FU issued
system.cpu.iq.FU_type_0::SimdReduceCmp              0      0.00%     80.19% # Type of FU issued
system.cpu.iq.FU_type_0::SimdFloatReduceAdd            0      0.00%     80.19% # Type of FU issued
system.cpu.iq.FU_type_0::SimdFloatReduceCmp            0      0.00%     80.19% # Type of FU issued
system.cpu.iq.FU_type_0::SimdAes                    0      0.00%     80.19% # Type of FU issued
system.cpu.iq.FU_type_0::SimdAesMix                 0      0.00%     80.19% # Type of FU issued
system.cpu.iq.FU_type_0::SimdSha1Hash               0      0.00%     80.19% # Type of FU issued
system.cpu.iq.FU_type_0::SimdSha1Hash2              0      0.00%     80.19% # Type of FU issued
system.cpu.iq.FU_type_0::SimdSha256Hash             0      0.00%     80.19% # Type of FU issued
system.cpu.iq.FU_type_0::SimdSha256Hash2            0      0.00%     80.19% # Type of FU issued
system.cpu.iq.FU_type_0::SimdShaSigma2              0      0.00%     80.19% # Type of FU issued
system.cpu.iq.FU_type_0::SimdShaSigma3              0      0.00%     80.19% # Type of FU issued
system.cpu.iq.FU_type_0::SimdPredAlu                0      0.00%     80.19% # Type of FU issued
system.cpu.iq.FU_type_0::MemRead               783219     13.03%     93.22% # Type of FU issued
system.cpu.iq.FU_type_0::MemWrite              351810      5.85%     99.07% # Type of FU issued
system.cpu.iq.FU_type_0::FloatMemRead           37946      0.63%     99.70% # Type of FU issued
system.cpu.iq.FU_type_0::FloatMemWrite          18138      0.30%    100.00% # Type of FU issued
system.cpu.iq.FU_type_0::IprAccess                  0      0.00%    100.00% # Type of FU issued
system.cpu.iq.FU_type_0::InstPrefetch               0      0.00%    100.00% # Type of FU issued
system.cpu.iq.FU_type_0::total                6012078                       # Type of FU issued
system.cpu.iq.fp_alu_accesses                  194678                       # Number of floating point alu accesses
system.cpu.iq.fp_inst_queue_reads              390688                       # Number of floating instruction queue reads
system.cpu.iq.fp_inst_queue_wakeup_accesses       191137                       # Number of floating instruction queue wakeup accesses
system.cpu.iq.fp_inst_queue_writes             238483                       # Number of floating instruction queue writes
system.cpu.iq.fu_busy_cnt                           0                       # FU busy when requested
system.cpu.iq.fu_busy_rate                          0                       # FU busy rate (busy events/executed inst)
system.cpu.iq.fu_full::No_OpClass                   0                       # attempts to use FU when none available
system.cpu.iq.fu_full::IntAlu                       0                       # attempts to use FU when none available
system.cpu.iq.fu_full::IntMult                      0                       # attempts to use FU when none available
system.cpu.iq.fu_full::IntDiv                       0                       # attempts to use FU when none available
system.cpu.iq.fu_full::FloatAdd                     0                       # attempts to use FU when none available
system.cpu.iq.fu_full::FloatCmp                     0                       # attempts to use FU when none available
system.cpu.iq.fu_full::FloatCvt                     0                       # attempts to use FU when none available
system.cpu.iq.fu_full::FloatMult                    0                       # attempts to use FU when none available
system.cpu.iq.fu_full::FloatMultAcc                 0                       # attempts to use FU when none available
system.cpu.iq.fu_full::FloatDiv                     0                       # attempts to use FU when none available
system.cpu.iq.fu_full::FloatMisc                    0                       # attempts to use FU when none available
system.cpu.iq.fu_full::FloatSqrt                    0                       # attempts to use FU when none available
system.cpu.iq.fu_full::SimdAdd                      0                       # attempts to use FU when none available
system.cpu.iq.fu_full::SimdAddAcc                   0                       # attempts to use FU when none available
system.cpu.iq.fu_full::SimdAlu                      0                       # attempts to use FU when none available
system.cpu.iq.fu_full::SimdCmp                      0                       # attempts to use FU when none available
system.cpu.iq.fu_full::SimdCvt                      0                       # attempts to use FU when none available
system.cpu.iq.fu_full::SimdMisc                     0                       # attempts to use FU when none available
system.cpu.iq.fu_full::SimdMult                     0                       # attempts to use FU when none available
system.cpu.iq.fu_full::SimdMultAcc                  0                       # attempts to use FU when none available
system.cpu.iq.fu_full::SimdShift                    0                       # attempts to use FU when none available
system.cpu.iq.fu_full::SimdShiftAcc                 0                       # attempts to use FU when none available
system.cpu.iq.fu_full::SimdDiv                      0                       # attempts to use FU when none available
system.cpu.iq.fu_full::SimdSqrt                     0                       # attempts to use FU when none available
system.cpu.iq.fu_full::SimdFloatAdd                 0                       # attempts to use FU when none available
system.cpu.iq.fu_full::SimdFloatAlu                 0                       # attempts to use FU when none available
system.cpu.iq.fu_full::SimdFloatCmp                 0                       # attempts to use FU when none available
system.cpu.iq.fu_full::SimdFloatCvt                 0                       # attempts to use FU when none available
system.cpu.iq.fu_full::SimdFloatDiv                 0                       # attempts to use FU when none available
system.cpu.iq.fu_full::SimdFloatMisc                0                       # attempts to use FU when none available
system.cpu.iq.fu_full::SimdFloatMult                0                       # attempts to use FU when none available
system.cpu.iq.fu_full::SimdFloatMultAcc             0                       # attempts to use FU when none available
system.cpu.iq.fu_full::SimdFloatSqrt                0                       # attempts to use FU when none available
system.cpu.iq.fu_full::SimdReduceAdd                0                       # attempts to use FU when none available
system.cpu.iq.fu_full::SimdReduceAlu                0                       # attempts to use FU when none available
system.cpu.iq.fu_full::SimdReduceCmp                0                       # attempts to use FU when none available
system.cpu.iq.fu_full::SimdFloatReduceAdd            0                       # attempts to use FU when none available
system.cpu.iq.fu_full::SimdFloatReduceCmp            0                       # attempts to use FU when none available
system.cpu.iq.fu_full::SimdAes                      0                       # attempts to use FU when none available
system.cpu.iq.fu_full::SimdAesMix                   0                       # attempts to use FU when none available
system.cpu.iq.fu_full::SimdSha1Hash                 0                       # attempts to use FU when none available
system.cpu.iq.fu_full::SimdSha1Hash2                0                       # attempts to use FU when none available
system.cpu.iq.fu_full::SimdSha256Hash               0                       # attempts to use FU when none available
system.cpu.iq.fu_full::SimdSha256Hash2              0                       # attempts to use FU when none available
system.cpu.iq.fu_full::SimdShaSigma2                0                       # attempts to use FU when none available
system.cpu.iq.fu_full::SimdShaSigma3                0                       # attempts to use FU when none available
system.cpu.iq.fu_full::SimdPredAlu                  0                       # attempts to use FU when none available
system.cpu.iq.fu_full::MemRead                      0                       # attempts to use FU when none available
system.cpu.iq.fu_full::MemWrite                     0                       # attempts to use FU when none available
system.cpu.iq.fu_full::FloatMemRead                 0                       # attempts to use FU when none available
system.cpu.iq.fu_full::FloatMemWrite                0                       # attempts to use FU when none available
system.cpu.iq.fu_full::IprAccess                    0                       # attempts to use FU when none available
system.cpu.iq.fu_full::InstPrefetch                 0                       # attempts to use FU when none available
system.cpu.iq.int_alu_accesses                5782489                       # Number of integer alu accesses
system.cpu.iq.int_inst_queue_reads           14885705                       # Number of integer instruction queue reads
system.cpu.iq.int_inst_queue_wakeup_accesses      5763658                       # Number of integer instruction queue wakeup accesses
system.cpu.iq.int_inst_queue_writes           7018490                       # Number of integer instruction queue writes
system.cpu.iq.iqInstsAdded                    6343075                       # Number of instructions added to the IQ (excludes non-spec)
system.cpu.iq.iqInstsIssued                   6012078                       # Number of instructions issued
system.cpu.iq.iqNonSpecInstsAdded                1134                       # Number of non-speculative instructions added to the IQ
system.cpu.iq.iqSquashedInstsExamined          912683                       # Number of squashed instructions iterated over during squash; mainly for profiling
system.cpu.iq.iqSquashedInstsIssued             18178                       # Number of squashed instructions issued
system.cpu.iq.iqSquashedNonSpecRemoved            374                       # Number of squashed non-spec instructions that were removed
system.cpu.iq.iqSquashedOperandsExamined      1355651                       # Number of squashed operands that are examined and possibly removed from graph
system.cpu.iq.issued_per_cycle::samples       3234063                       # Number of insts issued each cycle
system.cpu.iq.issued_per_cycle::mean         1.858986                       # Number of insts issued each cycle
system.cpu.iq.issued_per_cycle::stdev        1.659667                       # Number of insts issued each cycle
system.cpu.iq.issued_per_cycle::underflows            0      0.00%      0.00% # Number of insts issued each cycle
system.cpu.iq.issued_per_cycle::0             1211096     37.45%     37.45% # Number of insts issued each cycle
system.cpu.iq.issued_per_cycle::1              235765      7.29%     44.74% # Number of insts issued each cycle
system.cpu.iq.issued_per_cycle::2              430521     13.31%     58.05% # Number of insts issued each cycle
system.cpu.iq.issued_per_cycle::3              511453     15.81%     73.86% # Number of insts issued each cycle
system.cpu.iq.issued_per_cycle::4              845228     26.14%    100.00% # Number of insts issued each cycle
system.cpu.iq.issued_per_cycle::overflows            0      0.00%    100.00% # Number of insts issued each cycle
system.cpu.iq.issued_per_cycle::min_value            0                       # Number of insts issued each cycle
system.cpu.iq.issued_per_cycle::max_value            4                       # Number of insts issued each cycle
system.cpu.iq.issued_per_cycle::total         3234063                       # Number of insts issued each cycle
system.cpu.iq.rate                           1.769888                       # Inst issue rate
system.cpu.iq.vec_alu_accesses                      0                       # Number of vector alu accesses
system.cpu.iq.vec_inst_queue_reads                  0                       # Number of vector instruction queue reads
system.cpu.iq.vec_inst_queue_wakeup_accesses            0                       # Number of vector instruction queue wakeup accesses
system.cpu.iq.vec_inst_queue_writes                 0                       # Number of vector instruction queue writes
system.cpu.itb.rdAccesses                           0                       # TLB accesses on read requests
system.cpu.itb.rdMisses                             0                       # TLB misses on read requests
system.cpu.itb.wrAccesses                      353202                       # TLB accesses on write requests
system.cpu.itb.wrMisses                           386                       # TLB misses on write requests
system.cpu.memDep0.conflictingLoads             17430                       # Number of conflicting loads.
system.cpu.memDep0.conflictingStores            12560                       # Number of conflicting stores.
system.cpu.memDep0.insertedLoads               841686                       # Number of loads inserted to the mem dependence unit.
system.cpu.memDep0.insertedStores              377905                       # Number of stores inserted to the mem dependence unit.
system.cpu.misc_regfile_reads                 2312823                       # number of misc regfile reads
system.cpu.misc_regfile_writes                    702                       # number of misc regfile writes
system.cpu.numCycles                          3396869                       # number of cpu cycles simulated
system.cpu.numWorkItemsCompleted                    0                       # number of work items this cpu completed
system.cpu.numWorkItemsStarted                      0                       # number of work items this cpu started
system.cpu.process.numSyscalls                     57                       # Number of system calls
system.cpu.rename.BlockCycles                  854198                       # Number of cycles rename is blocking
system.cpu.rename.CommittedMaps               6945790                       # Number of HB maps that are committed
system.cpu.rename.FullRegisterEvents               54                       # Number of times there has been no free registers
system.cpu.rename.IQFullEvents                  56880                       # Number of times rename has blocked due to IQ full
system.cpu.rename.IdleCycles                   474585                       # Number of cycles rename is idle
system.cpu.rename.LQFullEvents                  14700                       # Number of times rename has blocked due to LQ full
system.cpu.rename.ROBFullEvents                  4973                       # Number of times rename has blocked due to ROB full
system.cpu.rename.RenameLookups              16814773                       # Number of register rename lookups that rename has made
system.cpu.rename.RenamedInsts                6487436                       # Number of instructions processed by rename
system.cpu.rename.RenamedOperands             8381911                       # Number of destination operands rename has renamed
system.cpu.rename.RunCycles                   1668544                       # Number of cycles rename is running
system.cpu.rename.SQFullEvents                  77816                       # Number of times rename has blocked due to SQ full
system.cpu.rename.SquashCycles                  24847                       # Number of cycles rename is squashing
system.cpu.rename.UnblockCycles                191025                       # Number of cycles rename is unblocking
system.cpu.rename.UndoneMaps                  1436095                       # Number of HB maps that are undone due to squashing
system.cpu.rename.fp_rename_lookups            332258                       # Number of floating rename lookups
system.cpu.rename.int_rename_lookups         10141784                       # Number of integer rename lookups
system.cpu.rename.serializeStallCycles          20864                       # count of cycles rename stalled for serializing inst
system.cpu.rename.serializingInsts                902                       # count of serializing insts renamed
system.cpu.rename.skidInsts                    238046                       # count of insts added to the skid buffer
system.cpu.rename.tempSerializingInsts            954                       # count of temporary serializing insts renamed
system.cpu.rob.rob_reads                      8409885                       # The number of ROB reads
system.cpu.rob.rob_writes                    12937504                       # The number of ROB writes
system.cpu.timesIdled                            1609                       # Number of times that the entire CPU went into an idle state and unscheduled itself
system.l2bus.snoop_filter.hit_multi_requests           13                       # Number of requests hitting in the snoop filter with multiple (>1) holders of the requested data.
system.l2bus.snoop_filter.hit_multi_snoops            0                       # Number of snoops hitting in the snoop filter with multiple (>1) holders of the requested data.
system.l2bus.snoop_filter.hit_single_requests        18698                       # Number of requests hitting in the snoop filter with a single holder of the requested data.
system.l2bus.snoop_filter.hit_single_snoops          445                       # Number of snoops hitting in the snoop filter with a single holder of the requested data.
system.l2bus.snoop_filter.tot_requests          38676                       # Total number of requests made to the snoop filter.
system.l2bus.snoop_filter.tot_snoops              445                       # Total number of snoops made to the snoop filter.
system.l2cache.prefetcher.num_hwpf_issued          708                       # number of hwpf issued
system.l2cache.prefetcher.pfBufferHit               0                       # number of redundant prefetches already in prefetch queue
system.l2cache.prefetcher.pfIdentified            708                       # number of prefetch candidates identified
system.l2cache.prefetcher.pfInCache                 0                       # number of redundant prefetches already in cache/mshr dropped
system.l2cache.prefetcher.pfRemovedFull             0                       # number of prefetches dropped due to prefetch queue size
system.l2cache.prefetcher.pfSpanPage              100                       # number of prefetches that crossed the page
system.membus.snoop_filter.hit_multi_requests            0                       # Number of requests hitting in the snoop filter with multiple (>1) holders of the requested data.
system.membus.snoop_filter.hit_multi_snoops            0                       # Number of snoops hitting in the snoop filter with multiple (>1) holders of the requested data.
system.membus.snoop_filter.hit_single_requests         9562                       # Number of requests hitting in the snoop filter with a single holder of the requested data.
system.membus.snoop_filter.hit_single_snoops            0                       # Number of snoops hitting in the snoop filter with a single holder of the requested data.
system.membus.snoop_filter.tot_requests         23241                       # Total number of requests made to the snoop filter.
system.membus.snoop_filter.tot_snoops               0                       # Total number of snoops made to the snoop filter.
system.membus.pwrStateResidencyTicks::UNDEFINED   1358747200                       # Cumulative time (in ticks) in various power states
system.membus.trans_dist::ReadResp              12285                       # Transaction distribution
system.membus.trans_dist::WritebackDirty         1358                       # Transaction distribution
system.membus.trans_dist::CleanEvict             8204                       # Transaction distribution
system.membus.trans_dist::ReadExReq              1394                       # Transaction distribution
system.membus.trans_dist::ReadExResp             1394                       # Transaction distribution
system.membus.trans_dist::ReadSharedReq         12285                       # Transaction distribution
system.membus.pkt_count_system.l2cache.mem_side::system.mem_ctrl.port        36920                       # Packet count per connected master and slave (bytes)
system.membus.pkt_count_system.l2cache.mem_side::total        36920                       # Packet count per connected master and slave (bytes)
system.membus.pkt_count::total                  36920                       # Packet count per connected master and slave (bytes)
system.membus.pkt_size_system.l2cache.mem_side::system.mem_ctrl.port       962368                       # Cumulative packet size per connected master and slave (bytes)
system.membus.pkt_size_system.l2cache.mem_side::total       962368                       # Cumulative packet size per connected master and slave (bytes)
system.membus.pkt_size::total                  962368                       # Cumulative packet size per connected master and slave (bytes)
system.membus.snoops                                0                       # Total snoops (count)
system.membus.snoopTraffic                          0                       # Total snoop traffic (bytes)
system.membus.snoop_fanout::samples             13679                       # Request fanout histogram
system.membus.snoop_fanout::mean                    0                       # Request fanout histogram
system.membus.snoop_fanout::stdev                   0                       # Request fanout histogram
system.membus.snoop_fanout::underflows              0      0.00%      0.00% # Request fanout histogram
system.membus.snoop_fanout::0                   13679    100.00%    100.00% # Request fanout histogram
system.membus.snoop_fanout::1                       0      0.00%    100.00% # Request fanout histogram
system.membus.snoop_fanout::overflows               0      0.00%    100.00% # Request fanout histogram
system.membus.snoop_fanout::min_value               0                       # Request fanout histogram
system.membus.snoop_fanout::max_value               0                       # Request fanout histogram
system.membus.snoop_fanout::total               13679                       # Request fanout histogram
system.membus.reqLayer2.occupancy            11497791                       # Layer occupancy (ticks)
system.membus.reqLayer2.utilization               0.8                       # Layer utilization (%)
system.membus.respLayer0.occupancy           29700309                       # Layer occupancy (ticks)
system.membus.respLayer0.utilization              2.2                       # Layer utilization (%)
system.l2bus.pwrStateResidencyTicks::UNDEFINED   1358747200                       # Cumulative time (in ticks) in various power states
system.l2bus.trans_dist::ReadResp               17812                       # Transaction distribution
system.l2bus.trans_dist::WritebackDirty          4199                       # Transaction distribution
system.l2bus.trans_dist::CleanEvict             24147                       # Transaction distribution
system.l2bus.trans_dist::HardPFReq                992                       # Transaction distribution
system.l2bus.trans_dist::ReadExReq               2166                       # Transaction distribution
system.l2bus.trans_dist::ReadExResp              2166                       # Transaction distribution
system.l2bus.trans_dist::ReadSharedReq          17812                       # Transaction distribution
system.l2bus.pkt_count_system.cpu.icache.mem_side::system.l2cache.cpu_side         8354                       # Packet count per connected master and slave (bytes)
system.l2bus.pkt_count_system.cpu.dcache.mem_side::system.l2cache.cpu_side        50295                       # Packet count per connected master and slave (bytes)
system.l2bus.pkt_count::total                   58649                       # Packet count per connected master and slave (bytes)
system.l2bus.pkt_size_system.cpu.icache.mem_side::system.l2cache.cpu_side       183680                       # Cumulative packet size per connected master and slave (bytes)
system.l2bus.pkt_size_system.cpu.dcache.mem_side::system.l2cache.cpu_side      1276416                       # Cumulative packet size per connected master and slave (bytes)
system.l2bus.pkt_size::total                  1460096                       # Cumulative packet size per connected master and slave (bytes)
system.l2bus.snoops                             10645                       # Total snoops (count)
system.l2bus.snoopTraffic                       87232                       # Total snoop traffic (bytes)
system.l2bus.snoop_fanout::samples              30618                       # Request fanout histogram
system.l2bus.snoop_fanout::mean              0.014959                       # Request fanout histogram
system.l2bus.snoop_fanout::stdev             0.121389                       # Request fanout histogram
system.l2bus.snoop_fanout::underflows               0      0.00%      0.00% # Request fanout histogram
system.l2bus.snoop_fanout::0                    30160     98.50%     98.50% # Request fanout histogram
system.l2bus.snoop_fanout::1                      458      1.50%    100.00% # Request fanout histogram
system.l2bus.snoop_fanout::2                        0      0.00%    100.00% # Request fanout histogram
system.l2bus.snoop_fanout::overflows                0      0.00%    100.00% # Request fanout histogram
system.l2bus.snoop_fanout::min_value                0                       # Request fanout histogram
system.l2bus.snoop_fanout::max_value                1                       # Request fanout histogram
system.l2bus.snoop_fanout::total                30618                       # Request fanout histogram
system.l2bus.respLayer1.occupancy            20529198                       # Layer occupancy (ticks)
system.l2bus.respLayer1.utilization               1.5                       # Layer utilization (%)
system.l2bus.reqLayer0.occupancy             19197370                       # Layer occupancy (ticks)
system.l2bus.reqLayer0.utilization                1.4                       # Layer utilization (%)
system.l2bus.respLayer0.occupancy             3445998                       # Layer occupancy (ticks)
system.l2bus.respLayer0.utilization               0.3                       # Layer utilization (%)
system.clk_domain.clock                           400                       # Clock period in ticks
system.clk_domain.voltage_domain.voltage            1                       # Voltage in Volts
system.cpu.pwrStateResidencyTicks::ON      1358747200                       # Cumulative time (in ticks) in various power states
system.cpu.icache.pwrStateResidencyTicks::UNDEFINED   1358747200                       # Cumulative time (in ticks) in various power states
system.cpu.icache.demand_hits::.cpu.inst       349478                       # number of demand (read+write) hits
system.cpu.icache.demand_hits::total           349478                       # number of demand (read+write) hits
system.cpu.icache.overall_hits::.cpu.inst       349478                       # number of overall hits
system.cpu.icache.overall_hits::total          349478                       # number of overall hits
system.cpu.icache.demand_misses::.cpu.inst         3591                       # number of demand (read+write) misses
system.cpu.icache.demand_misses::total           3591                       # number of demand (read+write) misses
system.cpu.icache.overall_misses::.cpu.inst         3591                       # number of overall misses
system.cpu.icache.overall_misses::total          3591                       # number of overall misses
system.cpu.icache.demand_miss_latency::.cpu.inst    179457600                       # number of demand (read+write) miss cycles
system.cpu.icache.demand_miss_latency::total    179457600                       # number of demand (read+write) miss cycles
system.cpu.icache.overall_miss_latency::.cpu.inst    179457600                       # number of overall miss cycles
system.cpu.icache.overall_miss_latency::total    179457600                       # number of overall miss cycles
system.cpu.icache.demand_accesses::.cpu.inst       353069                       # number of demand (read+write) accesses
system.cpu.icache.demand_accesses::total       353069                       # number of demand (read+write) accesses
system.cpu.icache.overall_accesses::.cpu.inst       353069                       # number of overall (read+write) accesses
system.cpu.icache.overall_accesses::total       353069                       # number of overall (read+write) accesses
system.cpu.icache.demand_miss_rate::.cpu.inst     0.010171                       # miss rate for demand accesses
system.cpu.icache.demand_miss_rate::total     0.010171                       # miss rate for demand accesses
system.cpu.icache.overall_miss_rate::.cpu.inst     0.010171                       # miss rate for overall accesses
system.cpu.icache.overall_miss_rate::total     0.010171                       # miss rate for overall accesses
system.cpu.icache.demand_avg_miss_latency::.cpu.inst 49974.269006                       # average overall miss latency
system.cpu.icache.demand_avg_miss_latency::total 49974.269006                       # average overall miss latency
system.cpu.icache.overall_avg_miss_latency::.cpu.inst 49974.269006                       # average overall miss latency
system.cpu.icache.overall_avg_miss_latency::total 49974.269006                       # average overall miss latency
system.cpu.icache.blocked_cycles::no_mshrs           51                       # number of cycles access was blocked
system.cpu.icache.blocked_cycles::no_targets            0                       # number of cycles access was blocked
system.cpu.icache.blocked::no_mshrs                 2                       # number of cycles access was blocked
system.cpu.icache.blocked::no_targets               0                       # number of cycles access was blocked
system.cpu.icache.avg_blocked_cycles::no_mshrs    25.500000                       # average number of cycles each access was blocked
system.cpu.icache.avg_blocked_cycles::no_targets          nan                       # average number of cycles each access was blocked
system.cpu.icache.writebacks::.writebacks            2                       # number of writebacks
system.cpu.icache.writebacks::total                 2                       # number of writebacks
system.cpu.icache.demand_mshr_hits::.cpu.inst          720                       # number of demand (read+write) MSHR hits
system.cpu.icache.demand_mshr_hits::total          720                       # number of demand (read+write) MSHR hits
system.cpu.icache.overall_mshr_hits::.cpu.inst          720                       # number of overall MSHR hits
system.cpu.icache.overall_mshr_hits::total          720                       # number of overall MSHR hits
system.cpu.icache.demand_mshr_misses::.cpu.inst         2871                       # number of demand (read+write) MSHR misses
system.cpu.icache.demand_mshr_misses::total         2871                       # number of demand (read+write) MSHR misses
system.cpu.icache.overall_mshr_misses::.cpu.inst         2871                       # number of overall MSHR misses
system.cpu.icache.overall_mshr_misses::total         2871                       # number of overall MSHR misses
system.cpu.icache.demand_mshr_miss_latency::.cpu.inst    143606400                       # number of demand (read+write) MSHR miss cycles
system.cpu.icache.demand_mshr_miss_latency::total    143606400                       # number of demand (read+write) MSHR miss cycles
system.cpu.icache.overall_mshr_miss_latency::.cpu.inst    143606400                       # number of overall MSHR miss cycles
system.cpu.icache.overall_mshr_miss_latency::total    143606400                       # number of overall MSHR miss cycles
system.cpu.icache.demand_mshr_miss_rate::.cpu.inst     0.008132                       # mshr miss rate for demand accesses
system.cpu.icache.demand_mshr_miss_rate::total     0.008132                       # mshr miss rate for demand accesses
system.cpu.icache.overall_mshr_miss_rate::.cpu.inst     0.008132                       # mshr miss rate for overall accesses
system.cpu.icache.overall_mshr_miss_rate::total     0.008132                       # mshr miss rate for overall accesses
system.cpu.icache.demand_avg_mshr_miss_latency::.cpu.inst 50019.644723                       # average overall mshr miss latency
system.cpu.icache.demand_avg_mshr_miss_latency::total 50019.644723                       # average overall mshr miss latency
system.cpu.icache.overall_avg_mshr_miss_latency::.cpu.inst 50019.644723                       # average overall mshr miss latency
system.cpu.icache.overall_avg_mshr_miss_latency::total 50019.644723                       # average overall mshr miss latency
system.cpu.icache.replacements                   2615                       # number of replacements
system.cpu.icache.ReadReq_hits::.cpu.inst       349478                       # number of ReadReq hits
system.cpu.icache.ReadReq_hits::total          349478                       # number of ReadReq hits
system.cpu.icache.ReadReq_misses::.cpu.inst         3591                       # number of ReadReq misses
system.cpu.icache.ReadReq_misses::total          3591                       # number of ReadReq misses
system.cpu.icache.ReadReq_miss_latency::.cpu.inst    179457600                       # number of ReadReq miss cycles
system.cpu.icache.ReadReq_miss_latency::total    179457600                       # number of ReadReq miss cycles
system.cpu.icache.ReadReq_accesses::.cpu.inst       353069                       # number of ReadReq accesses(hits+misses)
system.cpu.icache.ReadReq_accesses::total       353069                       # number of ReadReq accesses(hits+misses)
system.cpu.icache.ReadReq_miss_rate::.cpu.inst     0.010171                       # miss rate for ReadReq accesses
system.cpu.icache.ReadReq_miss_rate::total     0.010171                       # miss rate for ReadReq accesses
system.cpu.icache.ReadReq_avg_miss_latency::.cpu.inst 49974.269006                       # average ReadReq miss latency
system.cpu.icache.ReadReq_avg_miss_latency::total 49974.269006                       # average ReadReq miss latency
system.cpu.icache.ReadReq_mshr_hits::.cpu.inst          720                       # number of ReadReq MSHR hits
system.cpu.icache.ReadReq_mshr_hits::total          720                       # number of ReadReq MSHR hits
system.cpu.icache.ReadReq_mshr_misses::.cpu.inst         2871                       # number of ReadReq MSHR misses
system.cpu.icache.ReadReq_mshr_misses::total         2871                       # number of ReadReq MSHR misses
system.cpu.icache.ReadReq_mshr_miss_latency::.cpu.inst    143606400                       # number of ReadReq MSHR miss cycles
system.cpu.icache.ReadReq_mshr_miss_latency::total    143606400                       # number of ReadReq MSHR miss cycles
system.cpu.icache.ReadReq_mshr_miss_rate::.cpu.inst     0.008132                       # mshr miss rate for ReadReq accesses
system.cpu.icache.ReadReq_mshr_miss_rate::total     0.008132                       # mshr miss rate for ReadReq accesses
system.cpu.icache.ReadReq_avg_mshr_miss_latency::.cpu.inst 50019.644723                       # average ReadReq mshr miss latency
system.cpu.icache.ReadReq_avg_mshr_miss_latency::total 50019.644723                       # average ReadReq mshr miss latency
system.cpu.icache.prefetcher.pwrStateResidencyTicks::UNDEFINED   1358747200                       # Cumulative time (in ticks) in various power states
system.cpu.icache.tags.pwrStateResidencyTicks::UNDEFINED   1358747200                       # Cumulative time (in ticks) in various power states
system.cpu.icache.tags.tagsinuse           253.976531                       # Cycle average of tags in use
system.cpu.icache.tags.total_refs              300826                       # Total number of references to valid blocks.
system.cpu.icache.tags.sampled_refs              2615                       # Sample count of references to valid blocks.
system.cpu.icache.tags.avg_refs            115.038623                       # Average number of references to valid blocks.
system.cpu.icache.tags.warmup_cycle             66400                       # Cycle when the warmup percentage was hit.
system.cpu.icache.tags.occ_blocks::.cpu.inst   253.976531                       # Average occupied blocks per requestor
system.cpu.icache.tags.occ_percent::.cpu.inst     0.992096                       # Average percentage of cache occupancy
system.cpu.icache.tags.occ_percent::total     0.992096                       # Average percentage of cache occupancy
system.cpu.icache.tags.occ_task_id_blocks::1024          256                       # Occupied blocks per task id
system.cpu.icache.tags.age_task_id_blocks_1024::0           57                       # Occupied blocks per task id
system.cpu.icache.tags.age_task_id_blocks_1024::1           52                       # Occupied blocks per task id
system.cpu.icache.tags.age_task_id_blocks_1024::2          146                       # Occupied blocks per task id
system.cpu.icache.tags.age_task_id_blocks_1024::3            1                       # Occupied blocks per task id
system.cpu.icache.tags.occ_task_id_percent::1024            1                       # Percentage of cache occupancy per task id
system.cpu.icache.tags.tag_accesses            709009                       # Number of tag accesses
system.cpu.icache.tags.data_accesses           709009                       # Number of data accesses
system.cpu.dtb.walker.pwrStateResidencyTicks::UNDEFINED   1358747200                       # Cumulative time (in ticks) in various power states
system.cpu.interrupts.clk_domain.clock           6400                       # Clock period in ticks
system.cpu.itb.walker.pwrStateResidencyTicks::UNDEFINED   1358747200                       # Cumulative time (in ticks) in various power states
system.cpu.dcache.pwrStateResidencyTicks::UNDEFINED   1358747200                       # Cumulative time (in ticks) in various power states
system.cpu.dcache.demand_hits::.cpu.data      1053456                       # number of demand (read+write) hits
system.cpu.dcache.demand_hits::total          1053456                       # number of demand (read+write) hits
system.cpu.dcache.overall_hits::.cpu.data      1053456                       # number of overall hits
system.cpu.dcache.overall_hits::total         1053456                       # number of overall hits
system.cpu.dcache.demand_misses::.cpu.data        34888                       # number of demand (read+write) misses
system.cpu.dcache.demand_misses::total          34888                       # number of demand (read+write) misses
system.cpu.dcache.overall_misses::.cpu.data        34888                       # number of overall misses
system.cpu.dcache.overall_misses::total         34888                       # number of overall misses
system.cpu.dcache.demand_miss_latency::.cpu.data   1689180799                       # number of demand (read+write) miss cycles
system.cpu.dcache.demand_miss_latency::total   1689180799                       # number of demand (read+write) miss cycles
system.cpu.dcache.overall_miss_latency::.cpu.data   1689180799                       # number of overall miss cycles
system.cpu.dcache.overall_miss_latency::total   1689180799                       # number of overall miss cycles
system.cpu.dcache.demand_accesses::.cpu.data      1088344                       # number of demand (read+write) accesses
system.cpu.dcache.demand_accesses::total      1088344                       # number of demand (read+write) accesses
system.cpu.dcache.overall_accesses::.cpu.data      1088344                       # number of overall (read+write) accesses
system.cpu.dcache.overall_accesses::total      1088344                       # number of overall (read+write) accesses
system.cpu.dcache.demand_miss_rate::.cpu.data     0.032056                       # miss rate for demand accesses
system.cpu.dcache.demand_miss_rate::total     0.032056                       # miss rate for demand accesses
system.cpu.dcache.overall_miss_rate::.cpu.data     0.032056                       # miss rate for overall accesses
system.cpu.dcache.overall_miss_rate::total     0.032056                       # miss rate for overall accesses
system.cpu.dcache.demand_avg_miss_latency::.cpu.data 48417.243723                       # average overall miss latency
system.cpu.dcache.demand_avg_miss_latency::total 48417.243723                       # average overall miss latency
system.cpu.dcache.overall_avg_miss_latency::.cpu.data 48417.243723                       # average overall miss latency
system.cpu.dcache.overall_avg_miss_latency::total 48417.243723                       # average overall miss latency
system.cpu.dcache.blocked_cycles::no_mshrs        28765                       # number of cycles access was blocked
system.cpu.dcache.blocked_cycles::no_targets          201                       # number of cycles access was blocked
system.cpu.dcache.blocked::no_mshrs               783                       # number of cycles access was blocked
system.cpu.dcache.blocked::no_targets               2                       # number of cycles access was blocked
system.cpu.dcache.avg_blocked_cycles::no_mshrs    36.736909                       # average number of cycles each access was blocked
system.cpu.dcache.avg_blocked_cycles::no_targets   100.500000                       # average number of cycles each access was blocked
system.cpu.dcache.unused_prefetches              1789                       # number of HardPF blocks evicted w/o reference
system.cpu.dcache.writebacks::.writebacks         2839                       # number of writebacks
system.cpu.dcache.writebacks::total              2839                       # number of writebacks
system.cpu.dcache.demand_mshr_hits::.cpu.data        22198                       # number of demand (read+write) MSHR hits
system.cpu.dcache.demand_mshr_hits::total        22198                       # number of demand (read+write) MSHR hits
system.cpu.dcache.overall_mshr_hits::.cpu.data        22198                       # number of overall MSHR hits
system.cpu.dcache.overall_mshr_hits::total        22198                       # number of overall MSHR hits
system.cpu.dcache.demand_mshr_misses::.cpu.data        12690                       # number of demand (read+write) MSHR misses
system.cpu.dcache.demand_mshr_misses::total        12690                       # number of demand (read+write) MSHR misses
system.cpu.dcache.overall_mshr_misses::.cpu.data        12690                       # number of overall MSHR misses
system.cpu.dcache.overall_mshr_misses::.cpu.dcache.prefetcher         4417                       # number of overall MSHR misses
system.cpu.dcache.overall_mshr_misses::total        17107                       # number of overall MSHR misses
system.cpu.dcache.demand_mshr_miss_latency::.cpu.data    583008799                       # number of demand (read+write) MSHR miss cycles
system.cpu.dcache.demand_mshr_miss_latency::total    583008799                       # number of demand (read+write) MSHR miss cycles
system.cpu.dcache.overall_mshr_miss_latency::.cpu.data    583008799                       # number of overall MSHR miss cycles
system.cpu.dcache.overall_mshr_miss_latency::.cpu.dcache.prefetcher    249342450                       # number of overall MSHR miss cycles
system.cpu.dcache.overall_mshr_miss_latency::total    832351249                       # number of overall MSHR miss cycles
system.cpu.dcache.demand_mshr_miss_rate::.cpu.data     0.011660                       # mshr miss rate for demand accesses
system.cpu.dcache.demand_mshr_miss_rate::total     0.011660                       # mshr miss rate for demand accesses
system.cpu.dcache.overall_mshr_miss_rate::.cpu.data     0.011660                       # mshr miss rate for overall accesses
system.cpu.dcache.overall_mshr_miss_rate::.cpu.dcache.prefetcher          inf                       # mshr miss rate for overall accesses
system.cpu.dcache.overall_mshr_miss_rate::total     0.015718                       # mshr miss rate for overall accesses
system.cpu.dcache.demand_avg_mshr_miss_latency::.cpu.data 45942.379748                       # average overall mshr miss latency
system.cpu.dcache.demand_avg_mshr_miss_latency::total 45942.379748                       # average overall mshr miss latency
system.cpu.dcache.overall_avg_mshr_miss_latency::.cpu.data 45942.379748                       # average overall mshr miss latency
system.cpu.dcache.overall_avg_mshr_miss_latency::.cpu.dcache.prefetcher 56450.633914                       # average overall mshr miss latency
system.cpu.dcache.overall_avg_mshr_miss_latency::total 48655.594143                       # average overall mshr miss latency
system.cpu.dcache.replacements                  16083                       # number of replacements
system.cpu.dcache.ReadReq_hits::.cpu.data       708794                       # number of ReadReq hits
system.cpu.dcache.ReadReq_hits::total          708794                       # number of ReadReq hits
system.cpu.dcache.ReadReq_misses::.cpu.data        32677                       # number of ReadReq misses
system.cpu.dcache.ReadReq_misses::total         32677                       # number of ReadReq misses
system.cpu.dcache.ReadReq_miss_latency::.cpu.data   1580377600                       # number of ReadReq miss cycles
system.cpu.dcache.ReadReq_miss_latency::total   1580377600                       # number of ReadReq miss cycles
system.cpu.dcache.ReadReq_accesses::.cpu.data       741471                       # number of ReadReq accesses(hits+misses)
system.cpu.dcache.ReadReq_accesses::total       741471                       # number of ReadReq accesses(hits+misses)
system.cpu.dcache.ReadReq_miss_rate::.cpu.data     0.044071                       # miss rate for ReadReq accesses
system.cpu.dcache.ReadReq_miss_rate::total     0.044071                       # miss rate for ReadReq accesses
system.cpu.dcache.ReadReq_avg_miss_latency::.cpu.data 48363.607430                       # average ReadReq miss latency
system.cpu.dcache.ReadReq_avg_miss_latency::total 48363.607430                       # average ReadReq miss latency
system.cpu.dcache.ReadReq_mshr_hits::.cpu.data        22152                       # number of ReadReq MSHR hits
system.cpu.dcache.ReadReq_mshr_hits::total        22152                       # number of ReadReq MSHR hits
system.cpu.dcache.ReadReq_mshr_misses::.cpu.data        10525                       # number of ReadReq MSHR misses
system.cpu.dcache.ReadReq_mshr_misses::total        10525                       # number of ReadReq MSHR misses
system.cpu.dcache.ReadReq_mshr_miss_latency::.cpu.data    477538400                       # number of ReadReq MSHR miss cycles
system.cpu.dcache.ReadReq_mshr_miss_latency::total    477538400                       # number of ReadReq MSHR miss cycles
system.cpu.dcache.ReadReq_mshr_miss_rate::.cpu.data     0.014195                       # mshr miss rate for ReadReq accesses
system.cpu.dcache.ReadReq_mshr_miss_rate::total     0.014195                       # mshr miss rate for ReadReq accesses
system.cpu.dcache.ReadReq_avg_mshr_miss_latency::.cpu.data 45371.819477                       # average ReadReq mshr miss latency
system.cpu.dcache.ReadReq_avg_mshr_miss_latency::total 45371.819477                       # average ReadReq mshr miss latency
system.cpu.dcache.WriteReq_hits::.cpu.data       344662                       # number of WriteReq hits
system.cpu.dcache.WriteReq_hits::total         344662                       # number of WriteReq hits
system.cpu.dcache.WriteReq_misses::.cpu.data         2211                       # number of WriteReq misses
system.cpu.dcache.WriteReq_misses::total         2211                       # number of WriteReq misses
system.cpu.dcache.WriteReq_miss_latency::.cpu.data    108803199                       # number of WriteReq miss cycles
system.cpu.dcache.WriteReq_miss_latency::total    108803199                       # number of WriteReq miss cycles
system.cpu.dcache.WriteReq_accesses::.cpu.data       346873                       # number of WriteReq accesses(hits+misses)
system.cpu.dcache.WriteReq_accesses::total       346873                       # number of WriteReq accesses(hits+misses)
system.cpu.dcache.WriteReq_miss_rate::.cpu.data     0.006374                       # miss rate for WriteReq accesses
system.cpu.dcache.WriteReq_miss_rate::total     0.006374                       # miss rate for WriteReq accesses
system.cpu.dcache.WriteReq_avg_miss_latency::.cpu.data 49209.949796                       # average WriteReq miss latency
system.cpu.dcache.WriteReq_avg_miss_latency::total 49209.949796                       # average WriteReq miss latency
system.cpu.dcache.WriteReq_mshr_hits::.cpu.data           46                       # number of WriteReq MSHR hits
system.cpu.dcache.WriteReq_mshr_hits::total           46                       # number of WriteReq MSHR hits
system.cpu.dcache.WriteReq_mshr_misses::.cpu.data         2165                       # number of WriteReq MSHR misses
[...]
system.l2cache.overall_mshr_miss_latency::.cpu.dcache.prefetcher      2459958                       # number of overall MSHR miss cycles
system.l2cache.overall_mshr_miss_latency::.l2cache.prefetcher       161998                       # number of overall MSHR miss cycles
system.l2cache.overall_mshr_miss_latency::total     24645556                       # number of overall MSHR miss cycles
system.l2cache.demand_mshr_miss_rate::.cpu.inst     0.526882                       # mshr miss rate for demand accesses
system.l2cache.demand_mshr_miss_rate::.cpu.data     0.488000                       # mshr miss rate for demand accesses
system.l2cache.demand_mshr_miss_rate::.cpu.dcache.prefetcher     0.836735                       # mshr miss rate for demand accesses
system.l2cache.demand_mshr_miss_rate::total     0.534031                       # mshr miss rate for demand accesses
system.l2cache.overall_mshr_miss_rate::.cpu.inst     0.526882                       # mshr miss rate for overall accesses
system.l2cache.overall_mshr_miss_rate::.cpu.data     0.488000                       # mshr miss rate for overall accesses
system.l2cache.overall_mshr_miss_rate::.cpu.dcache.prefetcher     0.836735                       # mshr miss rate for overall accesses
system.l2cache.overall_mshr_miss_rate::.l2cache.prefetcher          inf                       # mshr miss rate for overall accesses
system.l2cache.overall_mshr_miss_rate::total     0.537958                       # mshr miss rate for overall accesses
system.l2cache.demand_avg_mshr_miss_latency::.cpu.inst 59911.836735                       # average overall mshr miss latency
system.l2cache.demand_avg_mshr_miss_latency::.cpu.data 60206.557377                       # average overall mshr miss latency
system.l2cache.demand_avg_mshr_miss_latency::.cpu.dcache.prefetcher 59998.975610                       # average overall mshr miss latency
system.l2cache.demand_avg_mshr_miss_latency::total 60008.720588                       # average overall mshr miss latency
system.l2cache.overall_avg_mshr_miss_latency::.cpu.inst 59911.836735                       # average overall mshr miss latency
system.l2cache.overall_avg_mshr_miss_latency::.cpu.data 60206.557377                       # average overall mshr miss latency
system.l2cache.overall_avg_mshr_miss_latency::.cpu.dcache.prefetcher 59998.975610                       # average overall mshr miss latency
system.l2cache.overall_avg_mshr_miss_latency::.l2cache.prefetcher 53999.333333                       # average overall mshr miss latency
system.l2cache.overall_avg_mshr_miss_latency::total 59964.856448                       # average overall mshr miss latency
system.l2cache.replacements                       421                       # number of replacements
system.l2cache.WritebackDirty_hits::.writebacks          116                       # number of WritebackDirty hits
system.l2cache.WritebackDirty_hits::total          116                       # number of WritebackDirty hits
system.l2cache.WritebackDirty_accesses::.writebacks          116                       # number of WritebackDirty accesses(hits+misses)
system.l2cache.WritebackDirty_accesses::total          116                       # number of WritebackDirty accesses(hits+misses)
system.l2cache.CleanEvict_mshr_misses::.writebacks            9                       # number of CleanEvict MSHR misses
system.l2cache.CleanEvict_mshr_misses::total            9                       # number of CleanEvict MSHR misses
system.l2cache.CleanEvict_mshr_miss_rate::.writebacks          inf                       # mshr miss rate for CleanEvict accesses
system.l2cache.CleanEvict_mshr_miss_rate::total          inf                       # mshr miss rate for CleanEvict accesses
system.l2cache.HardPFReq_mshr_misses::.l2cache.prefetcher            3                       # number of HardPFReq MSHR misses
system.l2cache.HardPFReq_mshr_misses::total            3                       # number of HardPFReq MSHR misses
system.l2cache.HardPFReq_mshr_miss_latency::.l2cache.prefetcher       161998                       # number of HardPFReq MSHR miss cycles
system.l2cache.HardPFReq_mshr_miss_latency::total       161998                       # number of HardPFReq MSHR miss cycles
system.l2cache.HardPFReq_mshr_miss_rate::.l2cache.prefetcher          inf                       # mshr miss rate for HardPFReq accesses
system.l2cache.HardPFReq_mshr_miss_rate::total          inf                       # mshr miss rate for HardPFReq accesses
system.l2cache.HardPFReq_avg_mshr_miss_latency::.l2cache.prefetcher 53999.333333                       # average HardPFReq mshr miss latency
system.l2cache.HardPFReq_avg_mshr_miss_latency::total 53999.333333                       # average HardPFReq mshr miss latency
system.l2cache.ReadExReq_hits::.cpu.data            7                       # number of ReadExReq hits
system.l2cache.ReadExReq_hits::total                7                       # number of ReadExReq hits
system.l2cache.ReadExReq_misses::.cpu.data            7                       # number of ReadExReq misses
system.l2cache.ReadExReq_misses::total              7                       # number of ReadExReq misses
system.l2cache.ReadExReq_miss_latency::.cpu.data       495600                       # number of ReadExReq miss cycles
system.l2cache.ReadExReq_miss_latency::total       495600                       # number of ReadExReq miss cycles
system.l2cache.ReadExReq_accesses::.cpu.data           14                       # number of ReadExReq accesses(hits+misses)
system.l2cache.ReadExReq_accesses::total           14                       # number of ReadExReq accesses(hits+misses)
system.l2cache.ReadExReq_miss_rate::.cpu.data     0.500000                       # miss rate for ReadExReq accesses
system.l2cache.ReadExReq_miss_rate::total     0.500000                       # miss rate for ReadExReq accesses
system.l2cache.ReadExReq_avg_miss_latency::.cpu.data        70800                       # average ReadExReq miss latency
system.l2cache.ReadExReq_avg_miss_latency::total        70800                       # average ReadExReq miss latency
system.l2cache.ReadExReq_mshr_misses::.cpu.data            7                       # number of ReadExReq MSHR misses
system.l2cache.ReadExReq_mshr_misses::total            7                       # number of ReadExReq MSHR misses
system.l2cache.ReadExReq_mshr_miss_latency::.cpu.data       439600                       # number of ReadExReq MSHR miss cycles
system.l2cache.ReadExReq_mshr_miss_latency::total       439600                       # number of ReadExReq MSHR miss cycles
system.l2cache.ReadExReq_mshr_miss_rate::.cpu.data     0.500000                       # mshr miss rate for ReadExReq accesses
system.l2cache.ReadExReq_mshr_miss_rate::total     0.500000                       # mshr miss rate for ReadExReq accesses
system.l2cache.ReadExReq_avg_mshr_miss_latency::.cpu.data        62800                       # average ReadExReq mshr miss latency
system.l2cache.ReadExReq_avg_mshr_miss_latency::total        62800                       # average ReadExReq mshr miss latency
system.l2cache.ReadSharedReq_hits::.cpu.inst          220                       # number of ReadSharedReq hits
system.l2cache.ReadSharedReq_hits::.cpu.data          121                       # number of ReadSharedReq hits
system.l2cache.ReadSharedReq_hits::.cpu.dcache.prefetcher            8                       # number of ReadSharedReq hits
system.l2cache.ReadSharedReq_hits::total          349                       # number of ReadSharedReq hits
system.l2cache.ReadSharedReq_misses::.cpu.inst          245                       # number of ReadSharedReq misses
system.l2cache.ReadSharedReq_misses::.cpu.data          115                       # number of ReadSharedReq misses
system.l2cache.ReadSharedReq_misses::.cpu.dcache.prefetcher           41                       # number of ReadSharedReq misses
system.l2cache.ReadSharedReq_misses::total          401                       # number of ReadSharedReq misses
system.l2cache.ReadSharedReq_miss_latency::.cpu.inst     16646400                       # number of ReadSharedReq miss cycles
system.l2cache.ReadSharedReq_miss_latency::.cpu.data      7825600                       # number of ReadSharedReq miss cycles
system.l2cache.ReadSharedReq_miss_latency::.cpu.dcache.prefetcher      2787958                       # number of ReadSharedReq miss cycles
system.l2cache.ReadSharedReq_miss_latency::total     27259958                       # number of ReadSharedReq miss cycles
system.l2cache.ReadSharedReq_accesses::.cpu.inst          465                       # number of ReadSharedReq accesses(hits+misses)
system.l2cache.ReadSharedReq_accesses::.cpu.data          236                       # number of ReadSharedReq accesses(hits+misses)
system.l2cache.ReadSharedReq_accesses::.cpu.dcache.prefetcher           49                       # number of ReadSharedReq accesses(hits+misses)
system.l2cache.ReadSharedReq_accesses::total          750                       # number of ReadSharedReq accesses(hits+misses)
system.l2cache.ReadSharedReq_miss_rate::.cpu.inst     0.526882                       # miss rate for ReadSharedReq accesses
system.l2cache.ReadSharedReq_miss_rate::.cpu.data     0.487288                       # miss rate for ReadSharedReq accesses
system.l2cache.ReadSharedReq_miss_rate::.cpu.dcache.prefetcher     0.836735                       # miss rate for ReadSharedReq accesses
system.l2cache.ReadSharedReq_miss_rate::total     0.534667                       # miss rate for ReadSharedReq accesses
system.l2cache.ReadSharedReq_avg_miss_latency::.cpu.inst 67944.489796                       # average ReadSharedReq miss latency
system.l2cache.ReadSharedReq_avg_miss_latency::.cpu.data 68048.695652                       # average ReadSharedReq miss latency
system.l2cache.ReadSharedReq_avg_miss_latency::.cpu.dcache.prefetcher 67998.975610                       # average ReadSharedReq miss latency
system.l2cache.ReadSharedReq_avg_miss_latency::total 67979.945137                       # average ReadSharedReq miss latency
system.l2cache.ReadSharedReq_mshr_misses::.cpu.inst          245                       # number of ReadSharedReq MSHR misses
system.l2cache.ReadSharedReq_mshr_misses::.cpu.data          115                       # number of ReadSharedReq MSHR misses
system.l2cache.ReadSharedReq_mshr_misses::.cpu.dcache.prefetcher           41                       # number of ReadSharedReq MSHR misses
system.l2cache.ReadSharedReq_mshr_misses::total          401                       # number of ReadSharedReq MSHR misses
system.l2cache.ReadSharedReq_mshr_miss_latency::.cpu.inst     14678400                       # number of ReadSharedReq MSHR miss cycles
system.l2cache.ReadSharedReq_mshr_miss_latency::.cpu.data      6905600                       # number of ReadSharedReq MSHR miss cycles
system.l2cache.ReadSharedReq_mshr_miss_latency::.cpu.dcache.prefetcher      2459958                       # number of ReadSharedReq MSHR miss cycles
system.l2cache.ReadSharedReq_mshr_miss_latency::total     24043958                       # number of ReadSharedReq MSHR miss cycles
system.l2cache.ReadSharedReq_mshr_miss_rate::.cpu.inst     0.526882                       # mshr miss rate for ReadSharedReq accesses
system.l2cache.ReadSharedReq_mshr_miss_rate::.cpu.data     0.487288                       # mshr miss rate for ReadSharedReq accesses
system.l2cache.ReadSharedReq_mshr_miss_rate::.cpu.dcache.prefetcher     0.836735                       # mshr miss rate for ReadSharedReq accesses
system.l2cache.ReadSharedReq_mshr_miss_rate::total     0.534667                       # mshr miss rate for ReadSharedReq accesses
system.l2cache.ReadSharedReq_avg_mshr_miss_latency::.cpu.inst 59911.836735                       # average ReadSharedReq mshr miss latency
system.l2cache.ReadSharedReq_avg_mshr_miss_latency::.cpu.data 60048.695652                       # average ReadSharedReq mshr miss latency
system.l2cache.ReadSharedReq_avg_mshr_miss_latency::.cpu.dcache.prefetcher 59998.975610                       # average ReadSharedReq mshr miss latency
system.l2cache.ReadSharedReq_avg_mshr_miss_latency::total 59959.995012                       # average ReadSharedReq mshr miss latency
system.l2cache.prefetcher.pwrStateResidencyTicks::UNDEFINED     30381200                       # Cumulative time (in ticks) in various power states
system.l2cache.tags.pwrStateResidencyTicks::UNDEFINED     30381200                       # Cumulative time (in ticks) in various power states
system.l2cache.tags.tagsinuse                    4096                       # Cycle average of tags in use
system.l2cache.tags.total_refs                  14092                       # Total number of references to valid blocks.
system.l2cache.tags.sampled_refs                 4517                       # Sample count of references to valid blocks.
system.l2cache.tags.avg_refs                 3.119770                       # Average number of references to valid blocks.
system.l2cache.tags.warmup_cycle                    0                       # Cycle when the warmup percentage was hit.
system.l2cache.tags.occ_blocks::.writebacks    47.123063                       # Average occupied blocks per requestor
system.l2cache.tags.occ_blocks::.cpu.inst  1128.702240                       # Average occupied blocks per requestor
system.l2cache.tags.occ_blocks::.cpu.data  1825.064604                       # Average occupied blocks per requestor
system.l2cache.tags.occ_blocks::.cpu.dcache.prefetcher   939.298749                       # Average occupied blocks per requestor
system.l2cache.tags.occ_blocks::.l2cache.prefetcher   155.811344                       # Average occupied blocks per requestor
system.l2cache.tags.occ_percent::.writebacks     0.011505                       # Average percentage of cache occupancy
system.l2cache.tags.occ_percent::.cpu.inst     0.275562                       # Average percentage of cache occupancy
system.l2cache.tags.occ_percent::.cpu.data     0.445572                       # Average percentage of cache occupancy
system.l2cache.tags.occ_percent::.cpu.dcache.prefetcher     0.229321                       # Average percentage of cache occupancy
system.l2cache.tags.occ_percent::.l2cache.prefetcher     0.038040                       # Average percentage of cache occupancy
system.l2cache.tags.occ_percent::total              1                       # Average percentage of cache occupancy
system.l2cache.tags.occ_task_id_blocks::1022         1035                       # Occupied blocks per task id
system.l2cache.tags.occ_task_id_blocks::1024         3061                       # Occupied blocks per task id
system.l2cache.tags.age_task_id_blocks_1022::0           11                       # Occupied blocks per task id
system.l2cache.tags.age_task_id_blocks_1022::1           34                       # Occupied blocks per task id
system.l2cache.tags.age_task_id_blocks_1022::4          990                       # Occupied blocks per task id
system.l2cache.tags.age_task_id_blocks_1024::0          171                       # Occupied blocks per task id
system.l2cache.tags.age_task_id_blocks_1024::1          205                       # Occupied blocks per task id
system.l2cache.tags.age_task_id_blocks_1024::4         2685                       # Occupied blocks per task id
system.l2cache.tags.occ_task_id_percent::1022     0.252686                       # Percentage of cache occupancy per task id
system.l2cache.tags.occ_task_id_percent::1024     0.747314                       # Percentage of cache occupancy per task id
system.l2cache.tags.tag_accesses                12645                       # Number of tag accesses
system.l2cache.tags.data_accesses               12645                       # Number of data accesses
system.mem_ctrl.pwrStateResidencyTicks::UNDEFINED     30381200                       # Cumulative time (in ticks) in various power states
system.mem_ctrl.bytes_read::.cpu.inst           15744                       # Number of bytes read from this memory
system.mem_ctrl.bytes_read::.cpu.data            7808                       # Number of bytes read from this memory
system.mem_ctrl.bytes_read::.cpu.dcache.prefetcher         2624                       # Number of bytes read from this memory
system.mem_ctrl.bytes_read::.l2cache.prefetcher          192                       # Number of bytes read from this memory
system.mem_ctrl.bytes_read::total               26368                       # Number of bytes read from this memory
system.mem_ctrl.bytes_inst_read::.cpu.inst        15744                       # Number of instructions bytes read from this memory
system.mem_ctrl.bytes_inst_read::total          15744                       # Number of instructions bytes read from this memory
system.mem_ctrl.bytes_written::.writebacks         1856                       # Number of bytes written to this memory
system.mem_ctrl.bytes_written::total             1856                       # Number of bytes written to this memory
system.mem_ctrl.num_reads::.cpu.inst              246                       # Number of read requests responded to by this memory
system.mem_ctrl.num_reads::.cpu.data              122                       # Number of read requests responded to by this memory
system.mem_ctrl.num_reads::.cpu.dcache.prefetcher           41                       # Number of read requests responded to by this memory
system.mem_ctrl.num_reads::.l2cache.prefetcher            3                       # Number of read requests responded to by this memory
system.mem_ctrl.num_reads::total                  412                       # Number of read requests responded to by this memory
system.mem_ctrl.num_writes::.writebacks            29                       # Number of write requests responded to by this memory
system.mem_ctrl.num_writes::total                  29                       # Number of write requests responded to by this memory
system.mem_ctrl.bw_read::.cpu.inst          518215212                       # Total read bandwidth from this memory (bytes/s)
system.mem_ctrl.bw_read::.cpu.data          257001040                       # Total read bandwidth from this memory (bytes/s)
system.mem_ctrl.bw_read::.cpu.dcache.prefetcher     86369202                       # Total read bandwidth from this memory (bytes/s)
system.mem_ctrl.bw_read::.l2cache.prefetcher      6319698                       # Total read bandwidth from this memory (bytes/s)
system.mem_ctrl.bw_read::total              867905152                       # Total read bandwidth from this memory (bytes/s)
system.mem_ctrl.bw_inst_read::.cpu.inst     518215212                       # Instruction read bandwidth from this memory (bytes/s)
system.mem_ctrl.bw_inst_read::total         518215212                       # Instruction read bandwidth from this memory (bytes/s)
system.mem_ctrl.bw_write::.writebacks        61090411                       # Write bandwidth from this memory (bytes/s)
system.mem_ctrl.bw_write::total              61090411                       # Write bandwidth from this memory (bytes/s)
system.mem_ctrl.bw_total::.writebacks        61090411                       # Total bandwidth to/from this memory (bytes/s)
system.mem_ctrl.bw_total::.cpu.inst         518215212                       # Total bandwidth to/from this memory (bytes/s)
system.mem_ctrl.bw_total::.cpu.data         257001040                       # Total bandwidth to/from this memory (bytes/s)
system.mem_ctrl.bw_total::.cpu.dcache.prefetcher     86369202                       # Total bandwidth to/from this memory (bytes/s)
system.mem_ctrl.bw_total::.l2cache.prefetcher      6319698                       # Total bandwidth to/from this memory (bytes/s)
system.mem_ctrl.bw_total::total             928995563                       # Total bandwidth to/from this memory (bytes/s)

---------- End Simulation Statistics   ----------
