
---------- Begin Simulation Statistics ----------
final_tick                                 3675188400                       # Number of ticks from beginning of simulation (restored from checkpoints and never reset)
host_inst_rate                                 199499                       # Simulator instruction rate (inst/s)
host_mem_usage                                4407848                       # Number of bytes of host memory used
host_op_rate                                   376466                       # Simulator op (including micro ops) rate (op/s)
host_seconds                                    47.04                       # Real time elapsed on the host
host_tick_rate                               78131069                       # Simulator tick rate (ticks/s)
sim_freq                                 1000000000000                       # Frequency of simulated ticks
sim_insts                                     9384168                       # Number of instructions simulated
sim_ops                                      17708480                       # Number of ops (including micro ops) simulated
sim_seconds                                  0.003675                       # Number of seconds simulated
sim_ticks                                  3675188400                       # Number of ticks simulated
system.cpu.branchPred.BTBCorrect                    0                       # Number of correct BTB predictions (this stat may not work properly.
system.cpu.branchPred.BTBHitPct              0.000000                       # BTB Hit Percentage
system.cpu.branchPred.BTBHits                       0                       # Number of BTB hits
system.cpu.branchPred.BTBLookups              1758347                       # Number of BTB lookups
system.cpu.branchPred.RASInCorrect                  7                       # Number of incorrect RAS predictions.
system.cpu.branchPred.condIncorrect             37936                       # Number of conditional branches incorrect
system.cpu.branchPred.condPredicted           1732841                       # Number of conditional branches predicted
system.cpu.branchPred.indirectHits             961889                       # Number of indirect target hits.
system.cpu.branchPred.indirectLookups         1758347                       # Number of indirect predictor lookups.
system.cpu.branchPred.indirectMisses           796458                       # Number of indirect misses.
system.cpu.branchPred.lookups                 1984434                       # Number of BP lookups
system.cpu.branchPred.usedRAS                  126613                       # Number of times the RAS was used to get a target.
system.cpu.branchPredindirectMispredicted        20790                       # Number of mispredicted indirect branches.
system.cpu.cc_regfile_reads                  10227318                       # number of cc regfile reads
system.cpu.cc_regfile_writes                  6720294                       # number of cc regfile writes
system.cpu.commit.amos                              0                       # Number of atomic instructions committed
system.cpu.commit.branchMispredicts             38075                       # The number of times a branch was mispredicted
system.cpu.commit.branches                    1759086                       # Number of branches committed
system.cpu.commit.bw_lim_events               2755767                       # number cycles where commit BW limit reached
system.cpu.commit.commitNonSpecStalls             764                       # The number of times commit has been forced to stall to communicate backwards
system.cpu.commit.commitSquashedInsts         1338841                       # The number of squashed insts skipped by commit
system.cpu.commit.committedInsts              9384168                       # Number of instructions committed
system.cpu.commit.committedOps               17708480                       # Number of ops (including micro ops) committed
system.cpu.commit.committed_per_cycle::samples      8609849                       # Number of insts commited each cycle
system.cpu.commit.committed_per_cycle::mean     2.056770                       # Number of insts commited each cycle
system.cpu.commit.committed_per_cycle::stdev     1.627409                       # Number of insts commited each cycle
system.cpu.commit.committed_per_cycle::underflows            0      0.00%      0.00% # Number of insts commited each cycle
system.cpu.commit.committed_per_cycle::0      2298462     26.70%     26.70% # Number of insts commited each cycle
system.cpu.commit.committed_per_cycle::1      1519754     17.65%     44.35% # Number of insts commited each cycle
system.cpu.commit.committed_per_cycle::2       941940     10.94%     55.29% # Number of insts commited each cycle
system.cpu.commit.committed_per_cycle::3      1093926     12.71%     67.99% # Number of insts commited each cycle
system.cpu.commit.committed_per_cycle::4      2755767     32.01%    100.00% # Number of insts commited each cycle
system.cpu.commit.committed_per_cycle::overflows            0      0.00%    100.00% # Number of insts commited each cycle
system.cpu.commit.committed_per_cycle::min_value            0                       # Number of insts commited each cycle
system.cpu.commit.committed_per_cycle::max_value            4                       # Number of insts commited each cycle
system.cpu.commit.committed_per_cycle::total      8609849                       # Number of insts commited each cycle
system.cpu.commit.fp_insts                     573354                       # Number of committed floating point instructions.
system.cpu.commit.function_calls               119176                       # Number of function calls committed.
system.cpu.commit.int_insts                  17244043                       # Number of committed integer instructions.
system.cpu.commit.loads                       2195113                       # Number of loads committed
system.cpu.commit.membars                           1                       # Number of memory barriers committed
system.cpu.commit.op_class_0::No_OpClass        70193      0.40%      0.40% # Class of committed instruction
system.cpu.commit.op_class_0::IntAlu         13579345     76.68%     77.08% # Class of committed instruction
system.cpu.commit.op_class_0::IntMult          108350      0.61%     77.69% # Class of committed instruction
system.cpu.commit.op_class_0::IntDiv            37486      0.21%     77.90% # Class of committed instruction
system.cpu.commit.op_class_0::FloatAdd          22853      0.13%     78.03% # Class of committed instruction
system.cpu.commit.op_class_0::FloatCmp              0      0.00%     78.03% # Class of committed instruction
system.cpu.commit.op_class_0::FloatCvt           1232      0.01%     78.04% # Class of committed instruction
system.cpu.commit.op_class_0::FloatMult             0      0.00%     78.04% # Class of committed instruction
system.cpu.commit.op_class_0::FloatMultAcc            0      0.00%     78.04% # Class of committed instruction
system.cpu.commit.op_class_0::FloatDiv              0      0.00%     78.04% # Class of committed instruction
system.cpu.commit.op_class_0::FloatMisc             0      0.00%     78.04% # Class of committed instruction
system.cpu.commit.op_class_0::FloatSqrt             0      0.00%     78.04% # Class of committed instruction
system.cpu.commit.op_class_0::SimdAdd            6216      0.04%     78.07% # Class of committed instruction
system.cpu.commit.op_class_0::SimdAddAcc            0      0.00%     78.07% # Class of committed instruction
system.cpu.commit.op_class_0::SimdAlu           91174      0.51%     78.59% # Class of committed instruction
system.cpu.commit.op_class_0::SimdCmp               0      0.00%     78.59% # Class of committed instruction
system.cpu.commit.op_class_0::SimdCvt           92126      0.52%     79.11% # Class of committed instruction
system.cpu.commit.op_class_0::SimdMisc         186538      1.05%     80.16% # Class of committed instruction
system.cpu.commit.op_class_0::SimdMult              0      0.00%     80.16% # Class of committed instruction
system.cpu.commit.op_class_0::SimdMultAcc            0      0.00%     80.16% # Class of committed instruction
system.cpu.commit.op_class_0::SimdShift          1088      0.01%     80.17% # Class of committed instruction
system.cpu.commit.op_class_0::SimdShiftAcc            0      0.00%     80.17% # Class of committed instruction
system.cpu.commit.op_class_0::SimdDiv               0      0.00%     80.17% # Class of committed instruction
system.cpu.commit.op_class_0::SimdSqrt              0      0.00%     80.17% # Class of committed instruction
system.cpu.commit.op_class_0::SimdFloatAdd            0      0.00%     80.17% # Class of committed instruction
system.cpu.commit.op_class_0::SimdFloatAlu            0      0.00%     80.17% # Class of committed instruction
system.cpu.commit.op_class_0::SimdFloatCmp            0      0.00%     80.17% # Class of committed instruction
system.cpu.commit.op_class_0::SimdFloatCvt            0      0.00%     80.17% # Class of committed instruction
system.cpu.commit.op_class_0::SimdFloatDiv            0      0.00%     80.17% # Class of committed instruction
system.cpu.commit.op_class_0::SimdFloatMisc            0      0.00%     80.17% # Class of committed instruction
system.cpu.commit.op_class_0::SimdFloatMult            0      0.00%     80.17% # Class of committed instruction
system.cpu.commit.op_class_0::SimdFloatMultAcc            0      0.00%     80.17% # Class of committed instruction
system.cpu.commit.op_class_0::SimdFloatSqrt            0      0.00%     80.17% # Class of committed instruction
system.cpu.commit.op_class_0::SimdReduceAdd            0      0.00%     80.17% # Class of committed instruction
system.cpu.commit.op_class_0::SimdReduceAlu            0      0.00%     80.17% # Class of committed instruction
system.cpu.commit.op_class_0::SimdReduceCmp            0      0.00%     80.17% # Class of committed instruction
system.cpu.commit.op_class_0::SimdFloatReduceAdd            0      0.00%     80.17% # Class of committed instruction
system.cpu.commit.op_class_0::SimdFloatReduceCmp            0      0.00%     80.17% # Class of committed instruction
system.cpu.commit.op_class_0::SimdAes               0      0.00%     80.17% # Class of committed instruction
system.cpu.commit.op_class_0::SimdAesMix            0      0.00%     80.17% # Class of committed instruction
system.cpu.commit.op_class_0::SimdSha1Hash            0      0.00%     80.17% # Class of committed instruction
system.cpu.commit.op_class_0::SimdSha1Hash2            0      0.00%     80.17% # Class of committed instruction
system.cpu.commit.op_class_0::SimdSha256Hash            0      0.00%     80.17% # Class of committed instruction
system.cpu.commit.op_class_0::SimdSha256Hash2            0      0.00%     80.17% # Class of committed instruction
system.cpu.commit.op_class_0::SimdShaSigma2            0      0.00%     80.17% # Class of committed instruction
system.cpu.commit.op_class_0::SimdShaSigma3            0      0.00%     80.17% # Class of committed instruction
system.cpu.commit.op_class_0::SimdPredAlu            0      0.00%     80.17% # Class of committed instruction
system.cpu.commit.op_class_0::MemRead         2115935     11.95%     92.12% # Class of committed instruction
system.cpu.commit.op_class_0::MemWrite        1284617      7.25%     99.37% # Class of committed instruction
system.cpu.commit.op_class_0::FloatMemRead        79178      0.45%     99.82% # Class of committed instruction
system.cpu.commit.op_class_0::FloatMemWrite        32149      0.18%    100.00% # Class of committed instruction
system.cpu.commit.op_class_0::IprAccess             0      0.00%    100.00% # Class of committed instruction
system.cpu.commit.op_class_0::InstPrefetch            0      0.00%    100.00% # Class of committed instruction
system.cpu.commit.op_class_0::total          17708480                       # Class of committed instruction
system.cpu.commit.refs                        3511879                       # Number of memory references committed
system.cpu.commit.swp_count                         0                       # Number of s/w prefetches committed
system.cpu.commit.vec_insts                         0                       # Number of committed Vector instructions.
system.cpu.committedInsts                     9384168                       # Number of Instructions Simulated
system.cpu.committedOps                      17708480                       # Number of Ops (including micro ops) Simulated
system.cpu.cpi                               0.979093                       # CPI: Cycles Per Instruction
system.cpu.cpi_total                         0.979093                       # CPI: Total CPI of All Threads
system.cpu.dcache.prefetcher.num_hwpf_issued         8403                       # number of hwpf issued
system.cpu.dcache.prefetcher.pfBufferHit        33492                       # number of redundant prefetches already in prefetch queue
system.cpu.dcache.prefetcher.pfIdentified        49067                       # number of prefetch candidates identified
system.cpu.dcache.prefetcher.pfInCache              0                       # number of redundant prefetches already in cache/mshr dropped
system.cpu.dcache.prefetcher.pfRemovedFull            0                       # number of prefetches dropped due to prefetch queue size
system.cpu.dcache.prefetcher.pfSpanPage          4225                       # number of prefetches that crossed the page
system.cpu.decode.BlockedCycles               1194964                       # Number of cycles decode is blocked
system.cpu.decode.DecodedInsts               19378617                       # Number of instructions handled by decode
system.cpu.decode.IdleCycles                  2330726                       # Number of cycles decode is idle
system.cpu.decode.RunCycles                   5291441                       # Number of cycles decode is running
system.cpu.decode.SquashCycles                  38184                       # Number of cycles decode is squashing
system.cpu.decode.UnblockCycles                121995                       # Number of cycles decode is unblocking
system.cpu.dtb.rdAccesses                     2347107                       # TLB accesses on read requests
system.cpu.dtb.rdMisses                          2126                       # TLB misses on read requests
system.cpu.dtb.wrAccesses                     1341498                       # TLB accesses on write requests
system.cpu.dtb.wrMisses                           184                       # TLB misses on write requests
system.cpu.fetch.Branches                     1984434                       # Number of branches that fetch encountered
system.cpu.fetch.CacheLines                   1492583                       # Number of cache lines fetched
system.cpu.fetch.Cycles                       6672921                       # Number of cycles fetch has run and was not squashing or blocked
system.cpu.fetch.IcacheSquashes                 10192                       # Number of outstanding Icache misses that were squashed
system.cpu.fetch.IcacheWaitRetryStallCycles            9                       # Number of stall cycles due to full MSHR
system.cpu.fetch.Insts                       10480740                       # Number of instructions fetch has processed
system.cpu.fetch.MiscStallCycles                  162                       # Number of cycles fetch has spent waiting on interrupts, or bad addresses, or out of MSHRs
system.cpu.fetch.PendingQuiesceStallCycles           15                       # Number of stall cycles due to pending quiesce instructions
system.cpu.fetch.PendingTrapStallCycles           930                       # Number of stall cycles due to pending traps
system.cpu.fetch.SquashCycles                   76368                       # Number of cycles fetch has spent squashing
system.cpu.fetch.branchRate                  0.215982                       # Number of branch fetches per cycle
system.cpu.fetch.icacheStallCycles            2265089                       # Number of cycles fetch is stalled on an Icache miss
system.cpu.fetch.predictedBranches            1088502                       # Number of branches that fetch has predicted taken
system.cpu.fetch.rate                        1.140702                       # Number of inst fetches per cycle
system.cpu.fetch.rateDist::samples            8977310                       # Number of instructions fetched each cycle (Total)
system.cpu.fetch.rateDist::mean              2.194887                       # Number of instructions fetched each cycle (Total)
system.cpu.fetch.rateDist::stdev             1.881465                       # Number of instructions fetched each cycle (Total)
system.cpu.fetch.rateDist::underflows               0      0.00%      0.00% # Number of instructions fetched each cycle (Total)
system.cpu.fetch.rateDist::0                  3402045     37.90%     37.90% # Number of instructions fetched each cycle (Total)
system.cpu.fetch.rateDist::1                   587693      6.55%     44.44% # Number of instructions fetched each cycle (Total)
system.cpu.fetch.rateDist::2                   237536      2.65%     47.09% # Number of instructions fetched each cycle (Total)
system.cpu.fetch.rateDist::3                   358732      4.00%     51.08% # Number of instructions fetched each cycle (Total)
system.cpu.fetch.rateDist::4                  4391304     48.92%    100.00% # Number of instructions fetched each cycle (Total)
system.cpu.fetch.rateDist::overflows                0      0.00%    100.00% # Number of instructions fetched each cycle (Total)
system.cpu.fetch.rateDist::min_value                0                       # Number of instructions fetched each cycle (Total)
system.cpu.fetch.rateDist::max_value                4                       # Number of instructions fetched each cycle (Total)
system.cpu.fetch.rateDist::total              8977310                       # Number of instructions fetched each cycle (Total)
system.cpu.fp_regfile_reads                    959547                       # number of floating regfile reads
system.cpu.fp_regfile_writes                   505599                       # number of floating regfile writes
system.cpu.fuPool.fu_ticks_busy::IntALU(0)    946800400                       # Total ticks fu was busy
system.cpu.fuPool.fu_ticks_busy::IntALU(1)    946800400                       # Total ticks fu was busy
system.cpu.fuPool.fu_ticks_busy::IntALU(2)    946800400                       # Total ticks fu was busy
system.cpu.fuPool.fu_ticks_busy::IntALU(3)    946800000                       # Total ticks fu was busy
system.cpu.fuPool.fu_ticks_busy::IntALU(4)    946800000                       # Total ticks fu was busy
system.cpu.fuPool.fu_ticks_busy::IntALU(5)    946800000                       # Total ticks fu was busy
system.cpu.fuPool.fu_ticks_busy::IntMultDiv(0)     29969600                       # Total ticks fu was busy
system.cpu.fuPool.fu_ticks_busy::IntMultDiv(1)     29968800                       # Total ticks fu was busy
system.cpu.fuPool.fu_ticks_busy::FP_ALU(0)      2550800                       # Total ticks fu was busy
system.cpu.fuPool.fu_ticks_busy::FP_ALU(1)      2550800                       # Total ticks fu was busy
system.cpu.fuPool.fu_ticks_busy::FP_ALU(2)      2550400                       # Total ticks fu was busy
system.cpu.fuPool.fu_ticks_busy::FP_ALU(3)      2550000                       # Total ticks fu was busy
system.cpu.fuPool.fu_ticks_busy::FP_MultDiv(0)            0                       # Total ticks fu was busy
system.cpu.fuPool.fu_ticks_busy::FP_MultDiv(1)            0                       # Total ticks fu was busy
system.cpu.fuPool.fu_ticks_busy::SIMD_Unit(0)     36523600                       # Total ticks fu was busy
system.cpu.fuPool.fu_ticks_busy::SIMD_Unit(1)     39048000                       # Total ticks fu was busy
system.cpu.fuPool.fu_ticks_busy::SIMD_Unit(2)     39080800                       # Total ticks fu was busy
system.cpu.fuPool.fu_ticks_busy::SIMD_Unit(3)     39232400                       # Total ticks fu was busy
system.cpu.fuPool.fu_ticks_busy::PredALU(0)            0                       # Total ticks fu was busy
system.cpu.fuPool.fu_ticks_busy::RdWrPort(0)    369120400                       # Total ticks fu was busy
system.cpu.fuPool.fu_ticks_busy::RdWrPort(1)    369040000                       # Total ticks fu was busy
system.cpu.fuPool.fu_ticks_busy::RdWrPort(2)    369090400                       # Total ticks fu was busy
system.cpu.fuPool.fu_ticks_busy::RdWrPort(3)    368957600                       # Total ticks fu was busy
system.cpu.fuPool.fu_ticks_busy::IprPort(0)            0                       # Total ticks fu was busy
system.cpu.fuPool.fu_ticks_busy::total     7381034800                       # Total ticks fu was busy
system.cpu.icache.prefetcher.num_hwpf_issued            0                       # number of hwpf issued
system.cpu.icache.prefetcher.pfBufferHit            0                       # number of redundant prefetches already in prefetch queue
system.cpu.icache.prefetcher.pfIdentified            0                       # number of prefetch candidates identified
system.cpu.icache.prefetcher.pfInCache              0                       # number of redundant prefetches already in cache/mshr dropped
system.cpu.icache.prefetcher.pfRemovedFull            0                       # number of prefetches dropped due to prefetch queue size
system.cpu.icache.prefetcher.pfSpanPage             0                       # number of prefetches that crossed the page
system.cpu.idleCycles                          210662                       # Total number of cycles that the CPU has spent unscheduled due to idling
system.cpu.iew.branchMispredicts                46923                       # Number of branch mispredicts detected at execute
system.cpu.iew.exec_branches                  1809703                       # Number of branches executed
system.cpu.iew.exec_nop                             0                       # number of nop insts executed
system.cpu.iew.exec_rate                     2.011369                       # Inst execution rate
system.cpu.iew.exec_refs                      3668072                       # number of memory reference insts executed
system.cpu.iew.exec_stores                    1339197                       # Number of stores executed
system.cpu.iew.exec_swp                             0                       # number of swp insts executed
system.cpu.iew.iewBlockCycles                  806902                       # Number of cycles IEW is blocking
system.cpu.iew.iewDispLoadInsts               2390809                       # Number of dispatched load instructions
system.cpu.iew.iewDispNonSpecInsts                974                       # Number of dispatched non-speculative instructions
system.cpu.iew.iewDispSquashedInsts               535                       # Number of squashed instructions skipped by dispatch
system.cpu.iew.iewDispStoreInsts              1374502                       # Number of dispatched store instructions
system.cpu.iew.iewDispatchedInsts            19047261                       # Number of instructions dispatched to IQ
system.cpu.iew.iewExecLoadInsts               2328875                       # Number of load instructions executed
system.cpu.iew.iewExecSquashedInsts             53090                       # Number of squashed instructions skipped in execute
system.cpu.iew.iewExecutedInsts              18480401                       # Number of executed instructions
system.cpu.iew.iewIQFullEvents                   3424                       # Number of times the IQ has become full, causing a stall
system.cpu.iew.iewIdleCycles                        0                       # Number of cycles IEW is idle
system.cpu.iew.iewLSQFullEvents                  9444                       # Number of times the LSQ has become full, causing a stall
system.cpu.iew.iewSquashCycles                  38184                       # Number of cycles IEW is squashing
system.cpu.iew.iewUnblockCycles                 15723                       # Number of cycles IEW is unblocking
system.cpu.iew.lsq.thread0.blockedLoads             0                       # Number of blocked loads due to partial load-store forwarding
system.cpu.iew.lsq.thread0.cacheBlocked           610                       # Number of times an access to memory failed due to the cache being blocked
system.cpu.iew.lsq.thread0.forwLoads           173922                       # Number of loads that had data forwarded from stores
system.cpu.iew.lsq.thread0.ignoredResponses          241                       # Number of memory responses ignored because the instruction is squashed
system.cpu.iew.lsq.thread0.invAddrLoads             0                       # Number of loads ignored due to an invalid address
system.cpu.iew.lsq.thread0.invAddrSwpfs             0                       # Number of software prefetches ignored due to an invalid address
system.cpu.iew.lsq.thread0.memOrderViolation          120                       # Number of memory ordering violations
system.cpu.iew.lsq.thread0.rescheduledLoads          196                       # Number of loads that were rescheduled
system.cpu.iew.lsq.thread0.squashedLoads       195694                       # Number of loads squashed
system.cpu.iew.lsq.thread0.squashedStores        57735                       # Number of stores squashed
system.cpu.iew.memOrderViolationEvents            120                       # Number of memory order violations
system.cpu.iew.predictedNotTakenIncorrect        35700                       # Number of branches that were predicted not taken incorrectly
system.cpu.iew.predictedTakenIncorrect          11223                       # Number of branches that were predicted taken incorrectly
system.cpu.iew.wb_consumers                  22716129                       # num instructions consuming a value
system.cpu.iew.wb_count                      18451159                       # cumulative count of insts written-back
system.cpu.iew.wb_fanout                     0.597567                       # average fanout of values written-back
system.cpu.iew.wb_producers                  13574412                       # num instructions producing a value
system.cpu.iew.wb_rate                       2.008186                       # insts written-back per cycle
system.cpu.iew.wb_sent                       18459764                       # cumulative count of insts sent to commit
system.cpu.int_regfile_reads                 28236042                       # number of integer regfile reads
system.cpu.int_regfile_writes                14946099                       # number of integer regfile writes
system.cpu.ipc                               1.021354                       # IPC: Instructions Per Cycle
system.cpu.ipc_total                         1.021354                       # IPC: Total IPC of All Threads
system.cpu.iq.FU_type_0::No_OpClass             80904      0.44%      0.44% # Type of FU issued
system.cpu.iq.FU_type_0::IntAlu              14202004     76.63%     77.07% # Type of FU issued
system.cpu.iq.FU_type_0::IntMult               108375      0.58%     77.65% # Type of FU issued
system.cpu.iq.FU_type_0::IntDiv                 41471      0.22%     77.87% # Type of FU issued
system.cpu.iq.FU_type_0::FloatAdd               24230      0.13%     78.00% # Type of FU issued
system.cpu.iq.FU_type_0::FloatCmp                   0      0.00%     78.00% # Type of FU issued
system.cpu.iq.FU_type_0::FloatCvt                1275      0.01%     78.01% # Type of FU issued
system.cpu.iq.FU_type_0::FloatMult                  0      0.00%     78.01% # Type of FU issued
system.cpu.iq.FU_type_0::FloatMultAcc               0      0.00%     78.01% # Type of FU issued
system.cpu.iq.FU_type_0::FloatDiv                   0      0.00%     78.01% # Type of FU issued
system.cpu.iq.FU_type_0::FloatMisc                  0      0.00%     78.01% # Type of FU issued
system.cpu.iq.FU_type_0::FloatSqrt                  0      0.00%     78.01% # Type of FU issued
system.cpu.iq.FU_type_0::SimdAdd                 6848      0.04%     78.05% # Type of FU issued
system.cpu.iq.FU_type_0::SimdAddAcc                 0      0.00%     78.05% # Type of FU issued
system.cpu.iq.FU_type_0::SimdAlu                94848      0.51%     78.56% # Type of FU issued
system.cpu.iq.FU_type_0::SimdCmp                    0      0.00%     78.56% # Type of FU issued
system.cpu.iq.FU_type_0::SimdCvt                93889      0.51%     79.07% # Type of FU issued
system.cpu.iq.FU_type_0::SimdMisc              187112      1.01%     80.08% # Type of FU issued
system.cpu.iq.FU_type_0::SimdMult                   0      0.00%     80.08% # Type of FU issued
system.cpu.iq.FU_type_0::SimdMultAcc                0      0.00%     80.08% # Type of FU issued
system.cpu.iq.FU_type_0::SimdShift               2015      0.01%     80.09% # Type of FU issued
system.cpu.iq.FU_type_0::SimdShiftAcc               0      0.00%     80.09% # Type of FU issued
system.cpu.iq.FU_type_0::SimdDiv                    0      0.00%     80.09% # Type of FU issued
system.cpu.iq.FU_type_0::SimdSqrt                   0      0.00%     80.09% # Type of FU issued
system.cpu.iq.FU_type_0::SimdFloatAdd               0      0.00%     80.09% # Type of FU issued
system.cpu.iq.FU_type_0::SimdFloatAlu               0      0.00%     80.09% # Type of FU issued
system.cpu.iq.FU_type_0::SimdFloatCmp               0      0.00%     80.09% # Type of FU issued
system.cpu.iq.FU_type_0::SimdFloatCvt               0      0.00%     80.09% # Type of FU issued
system.cpu.iq.FU_type_0::SimdFloatDiv               0      0.00%     80.09% # Type of FU issued
system.cpu.iq.FU_type_0::SimdFloatMisc              0      0.00%     80.09% # Type of FU issued
system.cpu.iq.FU_type_0::SimdFloatMult              0      0.00%     80.09% # Type of FU issued
system.cpu.iq.FU_type_0::SimdFloatMultAcc            0      0.00%     80.09% # Type of FU issued
system.cpu.iq.FU_type_0::SimdFloatSqrt              0      0.00%     80.09% # Type of FU issued
system.cpu.iq.FU_type_0::SimdReduceAdd              0      0.00%     80.09% # Type of FU issued
system.cpu.iq.FU_type_0::SimdReduceAlu              0      0.00%     80.09% # Type of FU issued
system.cpu.iq.FU_type_0::SimdReduceCmp              0      0.00%     80.09% # Type of FU issued
system.cpu.iq.FU_type_0::SimdFloatReduceAdd            0      0.00%     80.09% # Type of FU issued
system.cpu.iq.FU_type_0::SimdFloatReduceCmp            0      0.00%     80.09% # Type of FU issued
system.cpu.iq.FU_type_0::SimdAes                    0      0.00%     80.09% # Type of FU issued
system.cpu.iq.FU_type_0::SimdAesMix                 0      0.00%     80.09% # Type of FU issued
system.cpu.iq.FU_type_0::SimdSha1Hash               0      0.00%     80.09% # Type of FU issued
system.cpu.iq.FU_type_0::SimdSha1Hash2              0      0.00%     80.09% # Type of FU issued
system.cpu.iq.FU_type_0::SimdSha256Hash             0      0.00%     80.09% # Type of FU issued
system.cpu.iq.FU_type_0::SimdSha256Hash2            0      0.00%     80.09% # Type of FU issued
system.cpu.iq.FU_type_0::SimdShaSigma2              0      0.00%     80.09% # Type of FU issued
system.cpu.iq.FU_type_0::SimdShaSigma3              0      0.00%     80.09% # Type of FU issued
system.cpu.iq.FU_type_0::SimdPredAlu                0      0.00%     80.09% # Type of FU issued
system.cpu.iq.FU_type_0::MemRead              2261727     12.20%     92.29% # Type of FU issued
system.cpu.iq.FU_type_0::MemWrite             1309659      7.07%     99.36% # Type of FU issued
system.cpu.iq.FU_type_0::FloatMemRead           85549      0.46%     99.82% # Type of FU issued
system.cpu.iq.FU_type_0::FloatMemWrite          33588      0.18%    100.00% # Type of FU issued
system.cpu.iq.FU_type_0::IprAccess                  0      0.00%    100.00% # Type of FU issued
system.cpu.iq.FU_type_0::InstPrefetch               0      0.00%    100.00% # Type of FU issued
system.cpu.iq.FU_type_0::total               18533494                       # Type of FU issued
system.cpu.iq.fp_alu_accesses                  590306                       # Number of floating point alu accesses
system.cpu.iq.fp_inst_queue_reads             1182041                       # Number of floating instruction queue reads
system.cpu.iq.fp_inst_queue_wakeup_accesses       586508                       # Number of floating instruction queue wakeup accesses
system.cpu.iq.fp_inst_queue_writes             631920                       # Number of floating instruction queue writes
system.cpu.iq.fu_busy_cnt                           0                       # FU busy when requested
system.cpu.iq.fu_busy_rate                          0                       # FU busy rate (busy events/executed inst)
system.cpu.iq.fu_full::No_OpClass                   0                       # attempts to use FU when none available
system.cpu.iq.fu_full::IntAlu                       0                       # attempts to use FU when none available
system.cpu.iq.fu_full::IntMult                      0                       # attempts to use FU when none available
system.cpu.iq.fu_full::IntDiv                       0                       # attempts to use FU when none available
system.cpu.iq.fu_full::FloatAdd                     0                       # attempts to use FU when none available
system.cpu.iq.fu_full::FloatCmp                     0                       # attempts to use FU when none available
system.cpu.iq.fu_full::FloatCvt                     0                       # attempts to use FU when none available
system.cpu.iq.fu_full::FloatMult                    0                       # attempts to use FU when none available
system.cpu.iq.fu_full::FloatMultAcc                 0                       # attempts to use FU when none available
system.cpu.iq.fu_full::FloatDiv                     0                       # attempts to use FU when none available
system.cpu.iq.fu_full::FloatMisc                    0                       # attempts to use FU when none available
system.cpu.iq.fu_full::FloatSqrt                    0                       # attempts to use FU when none available
system.cpu.iq.fu_full::SimdAdd                      0                       # attempts to use FU when none available
system.cpu.iq.fu_full::SimdAddAcc                   0                       # attempts to use FU when none available
system.cpu.iq.fu_full::SimdAlu                      0                       # attempts to use FU when none available
system.cpu.iq.fu_full::SimdCmp                      0                       # attempts to use FU when none available
system.cpu.iq.fu_full::SimdCvt                      0                       # attempts to use FU when none available
system.cpu.iq.fu_full::SimdMisc                     0                       # attempts to use FU when none available
system.cpu.iq.fu_full::SimdMult                     0                       # attempts to use FU when none available
system.cpu.iq.fu_full::SimdMultAcc                  0                       # attempts to use FU when none available
system.cpu.iq.fu_full::SimdShift                    0                       # attempts to use FU when none available
system.cpu.iq.fu_full::SimdShiftAcc                 0                       # attempts to use FU when none available
system.cpu.iq.fu_full::SimdDiv                      0                       # attempts to use FU when none available
system.cpu.iq.fu_full::SimdSqrt                     0                       # attempts to use FU when none available
system.cpu.iq.fu_full::SimdFloatAdd                 0                       # attempts to use FU when none available
system.cpu.iq.fu_full::SimdFloatAlu                 0                       # attempts to use FU when none available
system.cpu.iq.fu_full::SimdFloatCmp                 0                       # attempts to use FU when none available
system.cpu.iq.fu_full::SimdFloatCvt                 0                       # attempts to use FU when none available
system.cpu.iq.fu_full::SimdFloatDiv                 0                       # attempts to use FU when none available
system.cpu.iq.fu_full::SimdFloatMisc                0                       # attempts to use FU when none available
system.cpu.iq.fu_full::SimdFloatMult                0                       # attempts to use FU when none available
system.cpu.iq.fu_full::SimdFloatMultAcc             0                       # attempts to use FU when none available
system.cpu.iq.fu_full::SimdFloatSqrt                0                       # attempts to use FU when none available
system.cpu.iq.fu_full::SimdReduceAdd                0                       # attempts to use FU when none available
system.cpu.iq.fu_full::SimdReduceAlu                0                       # attempts to use FU when none available
system.cpu.iq.fu_full::SimdReduceCmp                0                       # attempts to use FU when none available
system.cpu.iq.fu_full::SimdFloatReduceAdd            0                       # attempts to use FU when none available
system.cpu.iq.fu_full::SimdFloatReduceCmp            0                       # attempts to use FU when none available
system.cpu.iq.fu_full::SimdAes                      0                       # attempts to use FU when none available
system.cpu.iq.fu_full::SimdAesMix                   0                       # attempts to use FU when none available
system.cpu.iq.fu_full::SimdSha1Hash                 0                       # attempts to use FU when none available
system.cpu.iq.fu_full::SimdSha1Hash2                0                       # attempts to use FU when none available
system.cpu.iq.fu_full::SimdSha256Hash               0                       # attempts to use FU when none available
system.cpu.iq.fu_full::SimdSha256Hash2              0                       # attempts to use FU when none available
system.cpu.iq.fu_full::SimdShaSigma2                0                       # attempts to use FU when none available
system.cpu.iq.fu_full::SimdShaSigma3                0                       # attempts to use FU when none available
system.cpu.iq.fu_full::SimdPredAlu                  0                       # attempts to use FU when none available
system.cpu.iq.fu_full::MemRead                      0                       # attempts to use FU when none available
system.cpu.iq.fu_full::MemWrite                     0                       # attempts to use FU when none available
system.cpu.iq.fu_full::FloatMemRead                 0                       # attempts to use FU when none available
system.cpu.iq.fu_full::FloatMemWrite                0                       # attempts to use FU when none available
system.cpu.iq.fu_full::IprAccess                    0                       # attempts to use FU when none available
system.cpu.iq.fu_full::InstPrefetch                 0                       # attempts to use FU when none available
system.cpu.iq.int_alu_accesses               17862284                       # Number of integer alu accesses
system.cpu.iq.int_inst_queue_reads           44895735                       # Number of integer instruction queue reads
system.cpu.iq.int_inst_queue_wakeup_accesses     17864651                       # Number of integer instruction queue wakeup accesses
system.cpu.iq.int_inst_queue_writes          19754230                       # Number of integer instruction queue writes
system.cpu.iq.iqInstsAdded                   19046092                       # Number of instructions added to the IQ (excludes non-spec)
system.cpu.iq.iqInstsIssued                  18533494                       # Number of instructions issued
system.cpu.iq.iqNonSpecInstsAdded                1169                       # Number of non-speculative instructions added to the IQ
system.cpu.iq.iqSquashedInstsExamined         1338770                       # Number of squashed instructions iterated over during squash; mainly for profiling
system.cpu.iq.iqSquashedInstsIssued             33481                       # Number of squashed instructions issued
system.cpu.iq.iqSquashedNonSpecRemoved            405                       # Number of squashed non-spec instructions that were removed
system.cpu.iq.iqSquashedOperandsExamined      2092974                       # Number of squashed operands that are examined and possibly removed from graph
system.cpu.iq.issued_per_cycle::samples       8977310                       # Number of insts issued each cycle
system.cpu.iq.issued_per_cycle::mean         2.064482                       # Number of insts issued each cycle
system.cpu.iq.issued_per_cycle::stdev        1.532193                       # Number of insts issued each cycle
system.cpu.iq.issued_per_cycle::underflows            0      0.00%      0.00% # Number of insts issued each cycle
system.cpu.iq.issued_per_cycle::0             2266585     25.25%     25.25% # Number of insts issued each cycle
system.cpu.iq.issued_per_cycle::1             1190963     13.27%     38.51% # Number of insts issued each cycle
system.cpu.iq.issued_per_cycle::2             1492901     16.63%     55.14% # Number of insts issued each cycle
system.cpu.iq.issued_per_cycle::3             1750715     19.50%     74.65% # Number of insts issued each cycle
system.cpu.iq.issued_per_cycle::4             2276146     25.35%    100.00% # Number of insts issued each cycle
system.cpu.iq.issued_per_cycle::overflows            0      0.00%    100.00% # Number of insts issued each cycle
system.cpu.iq.issued_per_cycle::min_value            0                       # Number of insts issued each cycle
system.cpu.iq.issued_per_cycle::max_value            4                       # Number of insts issued each cycle
system.cpu.iq.issued_per_cycle::total         8977310                       # Number of insts issued each cycle
system.cpu.iq.rate                           2.017147                       # Inst issue rate
system.cpu.iq.vec_alu_accesses                      0                       # Number of vector alu accesses
system.cpu.iq.vec_inst_queue_reads                  0                       # Number of vector instruction queue reads
system.cpu.iq.vec_inst_queue_wakeup_accesses            0                       # Number of vector instruction queue wakeup accesses
system.cpu.iq.vec_inst_queue_writes                 0                       # Number of vector instruction queue writes
system.cpu.itb.rdAccesses                           0                       # TLB accesses on read requests
system.cpu.itb.rdMisses                             0                       # TLB misses on read requests
system.cpu.itb.wrAccesses                     1492741                       # TLB accesses on write requests
system.cpu.itb.wrMisses                           412                       # TLB misses on write requests
system.cpu.memDep0.conflictingLoads             89248                       # Number of conflicting loads.
system.cpu.memDep0.conflictingStores            22305                       # Number of conflicting stores.
system.cpu.memDep0.insertedLoads              2390809                       # Number of loads inserted to the mem dependence unit.
system.cpu.memDep0.insertedStores             1374502                       # Number of stores inserted to the mem dependence unit.
system.cpu.misc_regfile_reads                 7417314                       # number of misc regfile reads
system.cpu.misc_regfile_writes                    693                       # number of misc regfile writes
system.cpu.numCycles                          9187972                       # number of cpu cycles simulated
system.cpu.numWorkItemsCompleted                    0                       # number of work items this cpu completed
system.cpu.numWorkItemsStarted                      0                       # number of work items this cpu started
system.cpu.process.numSyscalls                     70                       # Number of system calls
system.cpu.rename.BlockCycles                  970820                       # Number of cycles rename is blocking
system.cpu.rename.CommittedMaps              21303374                       # Number of HB maps that are committed
system.cpu.rename.FullRegisterEvents               25                       # Number of times there has been no free registers
system.cpu.rename.IQFullEvents                  76777                       # Number of times rename has blocked due to IQ full
system.cpu.rename.IdleCycles                  2406850                       # Number of cycles rename is idle
system.cpu.rename.LQFullEvents                  15335                       # Number of times rename has blocked due to LQ full
system.cpu.rename.ROBFullEvents                  4462                       # Number of times rename has blocked due to ROB full
system.cpu.rename.RenameLookups              49369713                       # Number of register rename lookups that rename has made
system.cpu.rename.RenamedInsts               19251606                       # Number of instructions processed by rename
system.cpu.rename.RenamedOperands            23289066                       # Number of destination operands rename has renamed
system.cpu.rename.RunCycles                   5326420                       # Number of cycles rename is running
system.cpu.rename.SQFullEvents                  77913                       # Number of times rename has blocked due to SQ full
system.cpu.rename.SquashCycles                  38184                       # Number of cycles rename is squashing
system.cpu.rename.UnblockCycles                215049                       # Number of cycles rename is unblocking
system.cpu.rename.UndoneMaps                  1985669                       # Number of HB maps that are undone due to squashing
system.cpu.rename.fp_rename_lookups            995409                       # Number of floating rename lookups
system.cpu.rename.int_rename_lookups         29697461                       # Number of integer rename lookups
system.cpu.rename.serializeStallCycles          19987                       # count of cycles rename stalled for serializing inst
system.cpu.rename.serializingInsts                910                       # count of serializing insts renamed
system.cpu.rename.skidInsts                    283722                       # count of insts added to the skid buffer
system.cpu.rename.tempSerializingInsts            966                       # count of temporary serializing insts renamed
system.cpu.rob.rob_reads                     24901403                       # The number of ROB reads
system.cpu.rob.rob_writes                    38463118                       # The number of ROB writes
system.cpu.timesIdled                           24436                       # Number of times that the entire CPU went into an idle state and unscheduled itself
system.l2bus.snoop_filter.hit_multi_requests           14                       # Number of requests hitting in the snoop filter with multiple (>1) holders of the requested data.
system.l2bus.snoop_filter.hit_multi_snoops            0                       # Number of snoops hitting in the snoop filter with multiple (>1) holders of the requested data.
system.l2bus.snoop_filter.hit_single_requests        49611                       # Number of requests hitting in the snoop filter with a single holder of the requested data.
system.l2bus.snoop_filter.hit_single_snoops          480                       # Number of snoops hitting in the snoop filter with a single holder of the requested data.
system.l2bus.snoop_filter.tot_requests         100502                       # Total number of requests made to the snoop filter.
system.l2bus.snoop_filter.tot_snoops              480                       # Total number of snoops made to the snoop filter.
system.l2cache.prefetcher.num_hwpf_issued          854                       # number of hwpf issued
system.l2cache.prefetcher.pfBufferHit               0                       # number of redundant prefetches already in prefetch queue
system.l2cache.prefetcher.pfIdentified            855                       # number of prefetch candidates identified
system.l2cache.prefetcher.pfInCache                 0                       # number of redundant prefetches already in cache/mshr dropped
system.l2cache.prefetcher.pfRemovedFull             0                       # number of prefetches dropped due to prefetch queue size
system.l2cache.prefetcher.pfSpanPage              101                       # number of prefetches that crossed the page
system.membus.snoop_filter.hit_multi_requests            0                       # Number of requests hitting in the snoop filter with multiple (>1) holders of the requested data.
system.membus.snoop_filter.hit_multi_snoops            0                       # Number of snoops hitting in the snoop filter with multiple (>1) holders of the requested data.
system.membus.snoop_filter.hit_single_requests        10257                       # Number of requests hitting in the snoop filter with a single holder of the requested data.
system.membus.snoop_filter.hit_single_snoops            0                       # Number of snoops hitting in the snoop filter with a single holder of the requested data.
system.membus.snoop_filter.tot_requests         24637                       # Total number of requests made to the snoop filter.
system.membus.snoop_filter.tot_snoops               0                       # Total number of snoops made to the snoop filter.
system.membus.pwrStateResidencyTicks::UNDEFINED   3675188400                       # Cumulative time (in ticks) in various power states
system.membus.trans_dist::ReadResp              12651                       # Transaction distribution
system.membus.trans_dist::WritebackDirty         1394                       # Transaction distribution
system.membus.trans_dist::CleanEvict             8863                       # Transaction distribution
system.membus.trans_dist::ReadExReq              1729                       # Transaction distribution
system.membus.trans_dist::ReadExResp             1729                       # Transaction distribution
system.membus.trans_dist::ReadSharedReq         12651                       # Transaction distribution
system.membus.pkt_count_system.l2cache.mem_side::system.mem_ctrl.port        39017                       # Packet count per connected master and slave (bytes)
system.membus.pkt_count_system.l2cache.mem_side::total        39017                       # Packet count per connected master and slave (bytes)
system.membus.pkt_count::total                  39017                       # Packet count per connected master and slave (bytes)
system.membus.pkt_size_system.l2cache.mem_side::system.mem_ctrl.port      1009536                       # Cumulative packet size per connected master and slave (bytes)
system.membus.pkt_size_system.l2cache.mem_side::total      1009536                       # Cumulative packet size per connected master and slave (bytes)
system.membus.pkt_size::total                 1009536                       # Cumulative packet size per connected master and slave (bytes)
system.membus.snoops                                0                       # Total snoops (count)
system.membus.snoopTraffic                          0                       # Total snoop traffic (bytes)
system.membus.snoop_fanout::samples             14380                       # Request fanout histogram
system.membus.snoop_fanout::mean                    0                       # Request fanout histogram
system.membus.snoop_fanout::stdev                   0                       # Request fanout histogram
system.membus.snoop_fanout::underflows              0      0.00%      0.00% # Request fanout histogram
system.membus.snoop_fanout::0                   14380    100.00%    100.00% # Request fanout histogram
system.membus.snoop_fanout::1                       0      0.00%    100.00% # Request fanout histogram
system.membus.snoop_fanout::overflows               0      0.00%    100.00% # Request fanout histogram
system.membus.snoop_fanout::min_value               0                       # Request fanout histogram
system.membus.snoop_fanout::max_value               0                       # Request fanout histogram
system.membus.snoop_fanout::total               14380                       # Request fanout histogram
system.membus.reqLayer2.occupancy            12127125                       # Layer occupancy (ticks)
system.membus.reqLayer2.utilization               0.3                       # Layer utilization (%)
system.membus.respLayer0.occupancy           31211875                       # Layer occupancy (ticks)
system.membus.respLayer0.utilization              0.8                       # Layer utilization (%)
system.l2bus.pwrStateResidencyTicks::UNDEFINED   3675188400                       # Cumulative time (in ticks) in various power states
system.l2bus.trans_dist::ReadResp               48429                       # Transaction distribution
system.l2bus.trans_dist::WritebackDirty          4619                       # Transaction distribution
system.l2bus.trans_dist::CleanEvict             55349                       # Transaction distribution
system.l2bus.trans_dist::HardPFReq               1202                       # Transaction distribution
system.l2bus.trans_dist::ReadExReq               2462                       # Transaction distribution
system.l2bus.trans_dist::ReadExResp              2462                       # Transaction distribution
system.l2bus.trans_dist::ReadSharedReq          48429                       # Transaction distribution
system.l2bus.pkt_count_system.cpu.icache.mem_side::system.l2cache.cpu_side        98940                       # Packet count per connected master and slave (bytes)
system.l2bus.pkt_count_system.cpu.dcache.mem_side::system.l2cache.cpu_side        52448                       # Packet count per connected master and slave (bytes)
system.l2bus.pkt_count::total                  151388                       # Packet count per connected master and slave (bytes)
system.l2bus.pkt_size_system.cpu.icache.mem_side::system.l2cache.cpu_side      2116288                       # Cumulative packet size per connected master and slave (bytes)
system.l2bus.pkt_size_system.cpu.dcache.mem_side::system.l2cache.cpu_side      1346816                       # Cumulative packet size per connected master and slave (bytes)
system.l2bus.pkt_size::total                  3463104                       # Cumulative packet size per connected master and slave (bytes)
system.l2bus.snoops                             11564                       # Total snoops (count)
system.l2bus.snoopTraffic                       89536                       # Total snoop traffic (bytes)
system.l2bus.snoop_fanout::samples              62450                       # Request fanout histogram
system.l2bus.snoop_fanout::mean              0.007910                       # Request fanout histogram
system.l2bus.snoop_fanout::stdev             0.088588                       # Request fanout histogram
system.l2bus.snoop_fanout::underflows               0      0.00%      0.00% # Request fanout histogram
system.l2bus.snoop_fanout::0                    61956     99.21%     99.21% # Request fanout histogram
system.l2bus.snoop_fanout::1                      494      0.79%    100.00% # Request fanout histogram
system.l2bus.snoop_fanout::2                        0      0.00%    100.00% # Request fanout histogram
system.l2bus.snoop_fanout::overflows                0      0.00%    100.00% # Request fanout histogram
system.l2bus.snoop_fanout::min_value                0                       # Request fanout histogram
system.l2bus.snoop_fanout::max_value                1                       # Request fanout histogram
system.l2bus.snoop_fanout::total                62450                       # Request fanout histogram
system.l2bus.respLayer1.occupancy            21391596                       # Layer occupancy (ticks)
system.l2bus.respLayer1.utilization               0.6                       # Layer utilization (%)
system.l2bus.reqLayer0.occupancy             44286508                       # Layer occupancy (ticks)
system.l2bus.reqLayer0.utilization                1.2                       # Layer utilization (%)
system.l2bus.respLayer0.occupancy            39679599                       # Layer occupancy (ticks)
system.l2bus.respLayer0.utilization               1.1                       # Layer utilization (%)
system.clk_domain.clock                           400                       # Clock period in ticks
system.clk_domain.voltage_domain.voltage            1                       # Voltage in Volts
system.cpu.pwrStateResidencyTicks::ON      3675188400                       # Cumulative time (in ticks) in various power states
system.cpu.icache.pwrStateResidencyTicks::UNDEFINED   3675188400                       # Cumulative time (in ticks) in various power states
system.cpu.icache.demand_hits::.cpu.inst      1458758                       # number of demand (read+write) hits
system.cpu.icache.demand_hits::total          1458758                       # number of demand (read+write) hits
system.cpu.icache.overall_hits::.cpu.inst      1458758                       # number of overall hits
system.cpu.icache.overall_hits::total         1458758                       # number of overall hits
system.cpu.icache.demand_misses::.cpu.inst        33824                       # number of demand (read+write) misses
system.cpu.icache.demand_misses::total          33824                       # number of demand (read+write) misses
system.cpu.icache.overall_misses::.cpu.inst        33824                       # number of overall misses
system.cpu.icache.overall_misses::total         33824                       # number of overall misses
system.cpu.icache.demand_miss_latency::.cpu.inst    495162399                       # number of demand (read+write) miss cycles
system.cpu.icache.demand_miss_latency::total    495162399                       # number of demand (read+write) miss cycles
system.cpu.icache.overall_miss_latency::.cpu.inst    495162399                       # number of overall miss cycles
system.cpu.icache.overall_miss_latency::total    495162399                       # number of overall miss cycles
system.cpu.icache.demand_accesses::.cpu.inst      1492582                       # number of demand (read+write) accesses
system.cpu.icache.demand_accesses::total      1492582                       # number of demand (read+write) accesses
system.cpu.icache.overall_accesses::.cpu.inst      1492582                       # number of overall (read+write) accesses
system.cpu.icache.overall_accesses::total      1492582                       # number of overall (read+write) accesses
system.cpu.icache.demand_miss_rate::.cpu.inst     0.022661                       # miss rate for demand accesses
system.cpu.icache.demand_miss_rate::total     0.022661                       # miss rate for demand accesses
system.cpu.icache.overall_miss_rate::.cpu.inst     0.022661                       # miss rate for overall accesses
system.cpu.icache.overall_miss_rate::total     0.022661                       # miss rate for overall accesses
system.cpu.icache.demand_avg_miss_latency::.cpu.inst 14639.380292                       # average overall miss latency
system.cpu.icache.demand_avg_miss_latency::total 14639.380292                       # average overall miss latency
system.cpu.icache.overall_avg_miss_latency::.cpu.inst 14639.380292                       # average overall miss latency
system.cpu.icache.overall_avg_miss_latency::total 14639.380292                       # average overall miss latency
system.cpu.icache.blocked_cycles::no_mshrs           91                       # number of cycles access was blocked
system.cpu.icache.blocked_cycles::no_targets            0                       # number of cycles access was blocked
system.cpu.icache.blocked::no_mshrs                 5                       # number of cycles access was blocked
system.cpu.icache.blocked::no_targets               0                       # number of cycles access was blocked
system.cpu.icache.avg_blocked_cycles::no_mshrs    18.200000                       # average number of cycles each access was blocked
system.cpu.icache.avg_blocked_cycles::no_targets          nan                       # average number of cycles each access was blocked
system.cpu.icache.writebacks::.writebacks            3                       # number of writebacks
system.cpu.icache.writebacks::total                 3                       # number of writebacks
system.cpu.icache.demand_mshr_hits::.cpu.inst          758                       # number of demand (read+write) MSHR hits
system.cpu.icache.demand_mshr_hits::total          758                       # number of demand (read+write) MSHR hits
system.cpu.icache.overall_mshr_hits::.cpu.inst          758                       # number of overall MSHR hits
system.cpu.icache.overall_mshr_hits::total          758                       # number of overall MSHR hits
system.cpu.icache.demand_mshr_misses::.cpu.inst        33066                       # number of demand (read+write) MSHR misses
system.cpu.icache.demand_mshr_misses::total        33066                       # number of demand (read+write) MSHR misses
system.cpu.icache.overall_mshr_misses::.cpu.inst        33066                       # number of overall MSHR misses
system.cpu.icache.overall_mshr_misses::total        33066                       # number of overall MSHR misses
system.cpu.icache.demand_mshr_miss_latency::.cpu.inst    435002799                       # number of demand (read+write) MSHR miss cycles
system.cpu.icache.demand_mshr_miss_latency::total    435002799                       # number of demand (read+write) MSHR miss cycles
system.cpu.icache.overall_mshr_miss_latency::.cpu.inst    435002799                       # number of overall MSHR miss cycles
system.cpu.icache.overall_mshr_miss_latency::total    435002799                       # number of overall MSHR miss cycles
system.cpu.icache.demand_mshr_miss_rate::.cpu.inst     0.022154                       # mshr miss rate for demand accesses
system.cpu.icache.demand_mshr_miss_rate::total     0.022154                       # mshr miss rate for demand accesses
system.cpu.icache.overall_mshr_miss_rate::.cpu.inst     0.022154                       # mshr miss rate for overall accesses
system.cpu.icache.overall_mshr_miss_rate::total     0.022154                       # mshr miss rate for overall accesses
system.cpu.icache.demand_avg_mshr_miss_latency::.cpu.inst 13155.591816                       # average overall mshr miss latency
system.cpu.icache.demand_avg_mshr_miss_latency::total 13155.591816                       # average overall mshr miss latency
system.cpu.icache.overall_avg_mshr_miss_latency::.cpu.inst 13155.591816                       # average overall mshr miss latency
system.cpu.icache.overall_avg_mshr_miss_latency::total 13155.591816                       # average overall mshr miss latency
system.cpu.icache.replacements                  32810                       # number of replacements
system.cpu.icache.ReadReq_hits::.cpu.inst      1458758                       # number of ReadReq hits
system.cpu.icache.ReadReq_hits::total         1458758                       # number of ReadReq hits
system.cpu.icache.ReadReq_misses::.cpu.inst        33824                       # number of ReadReq misses
system.cpu.icache.ReadReq_misses::total         33824                       # number of ReadReq misses
system.cpu.icache.ReadReq_miss_latency::.cpu.inst    495162399                       # number of ReadReq miss cycles
system.cpu.icache.ReadReq_miss_latency::total    495162399                       # number of ReadReq miss cycles
system.cpu.icache.ReadReq_accesses::.cpu.inst      1492582                       # number of ReadReq accesses(hits+misses)
system.cpu.icache.ReadReq_accesses::total      1492582                       # number of ReadReq accesses(hits+misses)
system.cpu.icache.ReadReq_miss_rate::.cpu.inst     0.022661                       # miss rate for ReadReq accesses
system.cpu.icache.ReadReq_miss_rate::total     0.022661                       # miss rate for ReadReq accesses
system.cpu.icache.ReadReq_avg_miss_latency::.cpu.inst 14639.380292                       # average ReadReq miss latency
system.cpu.icache.ReadReq_avg_miss_latency::total 14639.380292                       # average ReadReq miss latency
system.cpu.icache.ReadReq_mshr_hits::.cpu.inst          758                       # number of ReadReq MSHR hits
system.cpu.icache.ReadReq_mshr_hits::total          758                       # number of ReadReq MSHR hits
system.cpu.icache.ReadReq_mshr_misses::.cpu.inst        33066                       # number of ReadReq MSHR misses
system.cpu.icache.ReadReq_mshr_misses::total        33066                       # number of ReadReq MSHR misses
system.cpu.icache.ReadReq_mshr_miss_latency::.cpu.inst    435002799                       # number of ReadReq MSHR miss cycles
system.cpu.icache.ReadReq_mshr_miss_latency::total    435002799                       # number of ReadReq MSHR miss cycles
system.cpu.icache.ReadReq_mshr_miss_rate::.cpu.inst     0.022154                       # mshr miss rate for ReadReq accesses
system.cpu.icache.ReadReq_mshr_miss_rate::total     0.022154                       # mshr miss rate for ReadReq accesses
system.cpu.icache.ReadReq_avg_mshr_miss_latency::.cpu.inst 13155.591816                       # average ReadReq mshr miss latency
system.cpu.icache.ReadReq_avg_mshr_miss_latency::total 13155.591816                       # average ReadReq mshr miss latency
system.cpu.icache.prefetcher.pwrStateResidencyTicks::UNDEFINED   3675188400                       # Cumulative time (in ticks) in various power states
system.cpu.icache.tags.pwrStateResidencyTicks::UNDEFINED   3675188400                       # Cumulative time (in ticks) in various power states
system.cpu.icache.tags.tagsinuse           255.257000                       # Cycle average of tags in use
system.cpu.icache.tags.total_refs              794288                       # Total number of references to valid blocks.
system.cpu.icache.tags.sampled_refs             32810                       # Sample count of references to valid blocks.
system.cpu.icache.tags.avg_refs             24.208717                       # Average number of references to valid blocks.
system.cpu.icache.tags.warmup_cycle             66400                       # Cycle when the warmup percentage was hit.
system.cpu.icache.tags.occ_blocks::.cpu.inst   255.257000                       # Average occupied blocks per requestor
system.cpu.icache.tags.occ_percent::.cpu.inst     0.997098                       # Average percentage of cache occupancy
system.cpu.icache.tags.occ_percent::total     0.997098                       # Average percentage of cache occupancy
system.cpu.icache.tags.occ_task_id_blocks::1024          256                       # Occupied blocks per task id
system.cpu.icache.tags.age_task_id_blocks_1024::0           89                       # Occupied blocks per task id
system.cpu.icache.tags.age_task_id_blocks_1024::3          167                       # Occupied blocks per task id
system.cpu.icache.tags.occ_task_id_percent::1024            1                       # Percentage of cache occupancy per task id
system.cpu.icache.tags.tag_accesses           3018230                       # Number of tag accesses
system.cpu.icache.tags.data_accesses          3018230                       # Number of data accesses
system.cpu.dtb.walker.pwrStateResidencyTicks::UNDEFINED   3675188400                       # Cumulative time (in ticks) in various power states
system.cpu.interrupts.clk_domain.clock           6400                       # Clock period in ticks
system.cpu.itb.walker.pwrStateResidencyTicks::UNDEFINED   3675188400                       # Cumulative time (in ticks) in various power states
system.cpu.dcache.pwrStateResidencyTicks::UNDEFINED   3675188400                       # Cumulative time (in ticks) in various power states
system.cpu.dcache.demand_hits::.cpu.data      3455235                       # number of demand (read+write) hits
system.cpu.dcache.demand_hits::total          3455235                       # number of demand (read+write) hits
system.cpu.dcache.overall_hits::.cpu.data      3455235                       # number of overall hits
system.cpu.dcache.overall_hits::total         3455235                       # number of overall hits
system.cpu.dcache.demand_misses::.cpu.data        35594                       # number of demand (read+write) misses
system.cpu.dcache.demand_misses::total          35594                       # number of demand (read+write) misses
system.cpu.dcache.overall_misses::.cpu.data        35594                       # number of overall misses
system.cpu.dcache.overall_misses::total         35594                       # number of overall misses
system.cpu.dcache.demand_miss_latency::.cpu.data   1715077199                       # number of demand (read+write) miss cycles
system.cpu.dcache.demand_miss_latency::total   1715077199                       # number of demand (read+write) miss cycles
system.cpu.dcache.overall_miss_latency::.cpu.data   1715077199                       # number of overall miss cycles
system.cpu.dcache.overall_miss_latency::total   1715077199                       # number of overall miss cycles
system.cpu.dcache.demand_accesses::.cpu.data      3490829                       # number of demand (read+write) accesses
system.cpu.dcache.demand_accesses::total      3490829                       # number of demand (read+write) accesses
system.cpu.dcache.overall_accesses::.cpu.data      3490829                       # number of overall (read+write) accesses
system.cpu.dcache.overall_accesses::total      3490829                       # number of overall (read+write) accesses
system.cpu.dcache.demand_miss_rate::.cpu.data     0.010196                       # miss rate for demand accesses
system.cpu.dcache.demand_miss_rate::total     0.010196                       # miss rate for demand accesses
system.cpu.dcache.overall_miss_rate::.cpu.data     0.010196                       # miss rate for overall accesses
system.cpu.dcache.overall_miss_rate::total     0.010196                       # miss rate for overall accesses
system.cpu.dcache.demand_avg_miss_latency::.cpu.data 48184.446789                       # average overall miss latency
system.cpu.dcache.demand_avg_miss_latency::total 48184.446789                       # average overall miss latency
system.cpu.dcache.overall_avg_miss_latency::.cpu.data 48184.446789                       # average overall miss latency
system.cpu.dcache.overall_avg_miss_latency::total 48184.446789                       # average overall miss latency
system.cpu.dcache.blocked_cycles::no_mshrs        30558                       # number of cycles access was blocked
system.cpu.dcache.blocked_cycles::no_targets          138                       # number of cycles access was blocked
system.cpu.dcache.blocked::no_mshrs               752                       # number of cycles access was blocked
system.cpu.dcache.blocked::no_targets               1                       # number of cycles access was blocked
system.cpu.dcache.avg_blocked_cycles::no_mshrs    40.635638                       # average number of cycles each access was blocked
system.cpu.dcache.avg_blocked_cycles::no_targets          138                       # average number of cycles each access was blocked
system.cpu.dcache.unused_prefetches              1779                       # number of HardPF blocks evicted w/o reference
system.cpu.dcache.writebacks::.writebacks         3222                       # number of writebacks
system.cpu.dcache.writebacks::total              3222                       # number of writebacks
system.cpu.dcache.demand_mshr_hits::.cpu.data        22380                       # number of demand (read+write) MSHR hits
system.cpu.dcache.demand_mshr_hits::total        22380                       # number of demand (read+write) MSHR hits
system.cpu.dcache.overall_mshr_hits::.cpu.data        22380                       # number of overall MSHR hits
system.cpu.dcache.overall_mshr_hits::total        22380                       # number of overall MSHR hits
system.cpu.dcache.demand_mshr_misses::.cpu.data        13214                       # number of demand (read+write) MSHR misses
system.cpu.dcache.demand_mshr_misses::total        13214                       # number of demand (read+write) MSHR misses
system.cpu.dcache.overall_mshr_misses::.cpu.data        13214                       # number of overall MSHR misses
system.cpu.dcache.overall_mshr_misses::.cpu.dcache.prefetcher         4611                       # number of overall MSHR misses
system.cpu.dcache.overall_mshr_misses::total        17825                       # number of overall MSHR misses
system.cpu.dcache.demand_mshr_miss_latency::.cpu.data    610446799                       # number of demand (read+write) MSHR miss cycles
system.cpu.dcache.demand_mshr_miss_latency::total    610446799                       # number of demand (read+write) MSHR miss cycles
system.cpu.dcache.overall_mshr_miss_latency::.cpu.data    610446799                       # number of overall MSHR miss cycles
system.cpu.dcache.overall_mshr_miss_latency::.cpu.dcache.prefetcher    264674434                       # number of overall MSHR miss cycles
system.cpu.dcache.overall_mshr_miss_latency::total    875121233                       # number of overall MSHR miss cycles
system.cpu.dcache.demand_mshr_miss_rate::.cpu.data     0.003785                       # mshr miss rate for demand accesses
system.cpu.dcache.demand_mshr_miss_rate::total     0.003785                       # mshr miss rate for demand accesses
system.cpu.dcache.overall_mshr_miss_rate::.cpu.data     0.003785                       # mshr miss rate for overall accesses
system.cpu.dcache.overall_mshr_miss_rate::.cpu.dcache.prefetcher          inf                       # mshr miss rate for overall accesses
system.cpu.dcache.overall_mshr_miss_rate::total     0.005106                       # mshr miss rate for overall accesses
system.cpu.dcache.demand_avg_mshr_miss_latency::.cpu.data 46196.972832                       # average overall mshr miss latency
system.cpu.dcache.demand_avg_mshr_miss_latency::total 46196.972832                       # average overall mshr miss latency
system.cpu.dcache.overall_avg_mshr_miss_latency::.cpu.data 46196.972832                       # average overall mshr miss latency
system.cpu.dcache.overall_avg_mshr_miss_latency::.cpu.dcache.prefetcher 57400.657992                       # average overall mshr miss latency
system.cpu.dcache.overall_avg_mshr_miss_latency::total 49095.160337                       # average overall mshr miss latency
system.cpu.dcache.replacements                  16801                       # number of replacements
system.cpu.dcache.ReadReq_hits::.cpu.data      2138676                       # number of ReadReq hits
system.cpu.dcache.ReadReq_hits::total         2138676                       # number of ReadReq hits
system.cpu.dcache.ReadReq_misses::.cpu.data        33091                       # number of ReadReq misses
system.cpu.dcache.ReadReq_misses::total         33091                       # number of ReadReq misses
system.cpu.dcache.ReadReq_miss_latency::.cpu.data   1581731200                       # number of ReadReq miss cycles
system.cpu.dcache.ReadReq_miss_latency::total   1581731200                       # number of ReadReq miss cycles
system.cpu.dcache.ReadReq_accesses::.cpu.data      2171767                       # number of ReadReq accesses(hits+misses)
system.cpu.dcache.ReadReq_accesses::total      2171767                       # number of ReadReq accesses(hits+misses)
system.cpu.dcache.ReadReq_miss_rate::.cpu.data     0.015237                       # miss rate for ReadReq accesses
system.cpu.dcache.ReadReq_miss_rate::total     0.015237                       # miss rate for ReadReq accesses
system.cpu.dcache.ReadReq_avg_miss_latency::.cpu.data 47799.437914                       # average ReadReq miss latency
system.cpu.dcache.ReadReq_avg_miss_latency::total 47799.437914                       # average ReadReq miss latency
system.cpu.dcache.ReadReq_mshr_hits::.cpu.data        22339                       # number of ReadReq MSHR hits
system.cpu.dcache.ReadReq_mshr_hits::total        22339                       # number of ReadReq MSHR hits
system.cpu.dcache.ReadReq_mshr_misses::.cpu.data        10752                       # number of ReadReq MSHR misses
system.cpu.dcache.ReadReq_mshr_misses::total        10752                       # number of ReadReq MSHR misses
system.cpu.dcache.ReadReq_mshr_miss_latency::.cpu.data    480861200                       # number of ReadReq MSHR miss cycles
system.cpu.dcache.ReadReq_mshr_miss_latency::total    480861200                       # number of ReadReq MSHR miss cycles
system.cpu.dcache.ReadReq_mshr_miss_rate::.cpu.data     0.004951                       # mshr miss rate for ReadReq accesses
system.cpu.dcache.ReadReq_mshr_miss_rate::total     0.004951                       # mshr miss rate for ReadReq accesses
system.cpu.dcache.ReadReq_avg_mshr_miss_latency::.cpu.data 44722.953869                       # average ReadReq mshr miss latency
system.cpu.dcache.ReadReq_avg_mshr_miss_latency::total 44722.953869                       # average ReadReq mshr miss latency
system.cpu.dcache.WriteReq_hits::.cpu.data      1316559                       # number of WriteReq hits
system.cpu.dcache.WriteReq_hits::total        1316559                       # number of WriteReq hits
system.cpu.dcache.WriteReq_misses::.cpu.data         2503                       # number of WriteReq misses
system.cpu.dcache.WriteReq_misses::total         2503                       # number of WriteReq misses
system.cpu.dcache.WriteReq_miss_latency::.cpu.data    133345999                       # number of WriteReq miss cycles
system.cpu.dcache.WriteReq_miss_latency::total    133345999                       # number of WriteReq miss cycles
system.cpu.dcache.WriteReq_accesses::.cpu.data      1319062                       # number of WriteReq accesses(hits+misses)
system.cpu.dcache.WriteReq_accesses::total      1319062                       # number of WriteReq accesses(hits+misses)
system.cpu.dcache.WriteReq_miss_rate::.cpu.data     0.001898                       # miss rate for WriteReq accesses
system.cpu.dcache.WriteReq_miss_rate::total     0.001898                       # miss rate for WriteReq accesses
system.cpu.dcache.WriteReq_avg_miss_latency::.cpu.data 53274.470236                       # average WriteReq miss latency
system.cpu.dcache.WriteReq_avg_miss_latency::total 53274.470236                       # average WriteReq miss latency
system.cpu.dcache.WriteReq_mshr_hits::.cpu.data           41                       # number of WriteReq MSHR hits
system.cpu.dcache.WriteReq_mshr_hits::total           41                       # number of WriteReq MSHR hits
system.cpu.dcache.WriteReq_mshr_misses::.cpu.data         2462                       # number of WriteReq MSHR misses
system.cpu.dcache.WriteReq_mshr_misses::total         2462                       # number of WriteReq MSHR misses
[...]
system.l2cache.demand_mshr_miss_rate::.cpu.data     0.480874                       # mshr miss rate for demand accesses
system.l2cache.demand_mshr_miss_rate::.cpu.dcache.prefetcher     0.847826                       # mshr miss rate for demand accesses
system.l2cache.demand_mshr_miss_rate::total     0.554502                       # mshr miss rate for demand accesses
system.l2cache.overall_mshr_miss_rate::.cpu.inst     0.585648                       # mshr miss rate for overall accesses
system.l2cache.overall_mshr_miss_rate::.cpu.data     0.480874                       # mshr miss rate for overall accesses
system.l2cache.overall_mshr_miss_rate::.cpu.dcache.prefetcher     0.847826                       # mshr miss rate for overall accesses
system.l2cache.overall_mshr_miss_rate::.l2cache.prefetcher          inf                       # mshr miss rate for overall accesses
system.l2cache.overall_mshr_miss_rate::total     0.556872                       # mshr miss rate for overall accesses
system.l2cache.demand_avg_mshr_miss_latency::.cpu.inst 59446.640316                       # average overall mshr miss latency
system.l2cache.demand_avg_mshr_miss_latency::.cpu.data 59636.363636                       # average overall mshr miss latency
system.l2cache.demand_avg_mshr_miss_latency::.cpu.dcache.prefetcher 61117.025641                       # average overall mshr miss latency
system.l2cache.demand_avg_mshr_miss_latency::total 59657.188034                       # average overall mshr miss latency
system.l2cache.overall_avg_mshr_miss_latency::.cpu.inst 59446.640316                       # average overall mshr miss latency
system.l2cache.overall_avg_mshr_miss_latency::.cpu.data 59636.363636                       # average overall mshr miss latency
system.l2cache.overall_avg_mshr_miss_latency::.cpu.dcache.prefetcher 61117.025641                       # average overall mshr miss latency
system.l2cache.overall_avg_mshr_miss_latency::.l2cache.prefetcher 65998.500000                       # average overall mshr miss latency
system.l2cache.overall_avg_mshr_miss_latency::total 59684.172340                       # average overall mshr miss latency
system.l2cache.replacements                       475                       # number of replacements
system.l2cache.WritebackDirty_hits::.writebacks          300                       # number of WritebackDirty hits
system.l2cache.WritebackDirty_hits::total          300                       # number of WritebackDirty hits
system.l2cache.WritebackDirty_accesses::.writebacks          300                       # number of WritebackDirty accesses(hits+misses)
system.l2cache.WritebackDirty_accesses::total          300                       # number of WritebackDirty accesses(hits+misses)
system.l2cache.CleanEvict_mshr_misses::.writebacks           11                       # number of CleanEvict MSHR misses
system.l2cache.CleanEvict_mshr_misses::total           11                       # number of CleanEvict MSHR misses
system.l2cache.CleanEvict_mshr_miss_rate::.writebacks          inf                       # mshr miss rate for CleanEvict accesses
system.l2cache.CleanEvict_mshr_miss_rate::total          inf                       # mshr miss rate for CleanEvict accesses
system.l2cache.HardPFReq_mshr_misses::.l2cache.prefetcher            2                       # number of HardPFReq MSHR misses
system.l2cache.HardPFReq_mshr_misses::total            2                       # number of HardPFReq MSHR misses
system.l2cache.HardPFReq_mshr_miss_latency::.l2cache.prefetcher       131997                       # number of HardPFReq MSHR miss cycles
system.l2cache.HardPFReq_mshr_miss_latency::total       131997                       # number of HardPFReq MSHR miss cycles
system.l2cache.HardPFReq_mshr_miss_rate::.l2cache.prefetcher          inf                       # mshr miss rate for HardPFReq accesses
system.l2cache.HardPFReq_mshr_miss_rate::total          inf                       # mshr miss rate for HardPFReq accesses
system.l2cache.HardPFReq_avg_mshr_miss_latency::.l2cache.prefetcher 65998.500000                       # average HardPFReq mshr miss latency
system.l2cache.HardPFReq_avg_mshr_miss_latency::total 65998.500000                       # average HardPFReq mshr miss latency
system.l2cache.ReadExReq_hits::.cpu.data            8                       # number of ReadExReq hits
system.l2cache.ReadExReq_hits::total                8                       # number of ReadExReq hits
system.l2cache.ReadExReq_misses::.cpu.data            6                       # number of ReadExReq misses
system.l2cache.ReadExReq_misses::total              6                       # number of ReadExReq misses
system.l2cache.ReadExReq_miss_latency::.cpu.data       439600                       # number of ReadExReq miss cycles
system.l2cache.ReadExReq_miss_latency::total       439600                       # number of ReadExReq miss cycles
system.l2cache.ReadExReq_accesses::.cpu.data           14                       # number of ReadExReq accesses(hits+misses)
system.l2cache.ReadExReq_accesses::total           14                       # number of ReadExReq accesses(hits+misses)
system.l2cache.ReadExReq_miss_rate::.cpu.data     0.428571                       # miss rate for ReadExReq accesses
system.l2cache.ReadExReq_miss_rate::total     0.428571                       # miss rate for ReadExReq accesses
system.l2cache.ReadExReq_avg_miss_latency::.cpu.data 73266.666667                       # average ReadExReq miss latency
system.l2cache.ReadExReq_avg_miss_latency::total 73266.666667                       # average ReadExReq miss latency
system.l2cache.ReadExReq_mshr_misses::.cpu.data            6                       # number of ReadExReq MSHR misses
system.l2cache.ReadExReq_mshr_misses::total            6                       # number of ReadExReq MSHR misses
system.l2cache.ReadExReq_mshr_miss_latency::.cpu.data       391600                       # number of ReadExReq MSHR miss cycles
system.l2cache.ReadExReq_mshr_miss_latency::total       391600                       # number of ReadExReq MSHR miss cycles
system.l2cache.ReadExReq_mshr_miss_rate::.cpu.data     0.428571                       # mshr miss rate for ReadExReq accesses
system.l2cache.ReadExReq_mshr_miss_rate::total     0.428571                       # mshr miss rate for ReadExReq accesses
system.l2cache.ReadExReq_avg_mshr_miss_latency::.cpu.data 65266.666667                       # average ReadExReq mshr miss latency
system.l2cache.ReadExReq_avg_mshr_miss_latency::total 65266.666667                       # average ReadExReq mshr miss latency
system.l2cache.ReadSharedReq_hits::.cpu.inst          179                       # number of ReadSharedReq hits
system.l2cache.ReadSharedReq_hits::.cpu.data          182                       # number of ReadSharedReq hits
system.l2cache.ReadSharedReq_hits::.cpu.dcache.prefetcher            6                       # number of ReadSharedReq hits
system.l2cache.ReadSharedReq_hits::total          367                       # number of ReadSharedReq hits
system.l2cache.ReadSharedReq_misses::.cpu.inst          253                       # number of ReadSharedReq misses
system.l2cache.ReadSharedReq_misses::.cpu.data          170                       # number of ReadSharedReq misses
system.l2cache.ReadSharedReq_misses::.cpu.dcache.prefetcher           40                       # number of ReadSharedReq misses
system.l2cache.ReadSharedReq_misses::total          463                       # number of ReadSharedReq misses
system.l2cache.ReadSharedReq_miss_latency::.cpu.inst     17056000                       # number of ReadSharedReq miss cycles
system.l2cache.ReadSharedReq_miss_latency::.cpu.data     11464400                       # number of ReadSharedReq miss cycles
system.l2cache.ReadSharedReq_miss_latency::.cpu.dcache.prefetcher      2708363                       # number of ReadSharedReq miss cycles
system.l2cache.ReadSharedReq_miss_latency::total     31228763                       # number of ReadSharedReq miss cycles
system.l2cache.ReadSharedReq_accesses::.cpu.inst          432                       # number of ReadSharedReq accesses(hits+misses)
system.l2cache.ReadSharedReq_accesses::.cpu.data          352                       # number of ReadSharedReq accesses(hits+misses)
system.l2cache.ReadSharedReq_accesses::.cpu.dcache.prefetcher           46                       # number of ReadSharedReq accesses(hits+misses)
system.l2cache.ReadSharedReq_accesses::total          830                       # number of ReadSharedReq accesses(hits+misses)
system.l2cache.ReadSharedReq_miss_rate::.cpu.inst     0.585648                       # miss rate for ReadSharedReq accesses
system.l2cache.ReadSharedReq_miss_rate::.cpu.data     0.482955                       # miss rate for ReadSharedReq accesses
system.l2cache.ReadSharedReq_miss_rate::.cpu.dcache.prefetcher     0.869565                       # miss rate for ReadSharedReq accesses
system.l2cache.ReadSharedReq_miss_rate::total     0.557831                       # miss rate for ReadSharedReq accesses
system.l2cache.ReadSharedReq_avg_miss_latency::.cpu.inst 67415.019763                       # average ReadSharedReq miss latency
system.l2cache.ReadSharedReq_avg_miss_latency::.cpu.data 67437.647059                       # average ReadSharedReq miss latency
system.l2cache.ReadSharedReq_avg_miss_latency::.cpu.dcache.prefetcher 67709.075000                       # average ReadSharedReq miss latency
system.l2cache.ReadSharedReq_avg_miss_latency::total 67448.732181                       # average ReadSharedReq miss latency
system.l2cache.ReadSharedReq_mshr_hits::.cpu.dcache.prefetcher            1                       # number of ReadSharedReq MSHR hits
system.l2cache.ReadSharedReq_mshr_hits::total            1                       # number of ReadSharedReq MSHR hits
system.l2cache.ReadSharedReq_mshr_misses::.cpu.inst          253                       # number of ReadSharedReq MSHR misses
system.l2cache.ReadSharedReq_mshr_misses::.cpu.data          170                       # number of ReadSharedReq MSHR misses
system.l2cache.ReadSharedReq_mshr_misses::.cpu.dcache.prefetcher           39                       # number of ReadSharedReq MSHR misses
system.l2cache.ReadSharedReq_mshr_misses::total          462                       # number of ReadSharedReq MSHR misses
system.l2cache.ReadSharedReq_mshr_miss_latency::.cpu.inst     15040000                       # number of ReadSharedReq MSHR miss cycles
system.l2cache.ReadSharedReq_mshr_miss_latency::.cpu.data     10104400                       # number of ReadSharedReq MSHR miss cycles
system.l2cache.ReadSharedReq_mshr_miss_latency::.cpu.dcache.prefetcher      2383564                       # number of ReadSharedReq MSHR miss cycles
system.l2cache.ReadSharedReq_mshr_miss_latency::total     27527964                       # number of ReadSharedReq MSHR miss cycles
system.l2cache.ReadSharedReq_mshr_miss_rate::.cpu.inst     0.585648                       # mshr miss rate for ReadSharedReq accesses
system.l2cache.ReadSharedReq_mshr_miss_rate::.cpu.data     0.482955                       # mshr miss rate for ReadSharedReq accesses
system.l2cache.ReadSharedReq_mshr_miss_rate::.cpu.dcache.prefetcher     0.847826                       # mshr miss rate for ReadSharedReq accesses
system.l2cache.ReadSharedReq_mshr_miss_rate::total     0.556627                       # mshr miss rate for ReadSharedReq accesses
system.l2cache.ReadSharedReq_avg_mshr_miss_latency::.cpu.inst 59446.640316                       # average ReadSharedReq mshr miss latency
system.l2cache.ReadSharedReq_avg_mshr_miss_latency::.cpu.data 59437.647059                       # average ReadSharedReq mshr miss latency
system.l2cache.ReadSharedReq_avg_mshr_miss_latency::.cpu.dcache.prefetcher 61117.025641                       # average ReadSharedReq mshr miss latency
system.l2cache.ReadSharedReq_avg_mshr_miss_latency::total 59584.337662                       # average ReadSharedReq mshr miss latency
system.l2cache.prefetcher.pwrStateResidencyTicks::UNDEFINED     32545200                       # Cumulative time (in ticks) in various power states
system.l2cache.tags.pwrStateResidencyTicks::UNDEFINED     32545200                       # Cumulative time (in ticks) in various power states
system.l2cache.tags.tagsinuse                    4096                       # Cycle average of tags in use
system.l2cache.tags.total_refs                  74131                       # Total number of references to valid blocks.
system.l2cache.tags.sampled_refs                 4571                       # Sample count of references to valid blocks.
system.l2cache.tags.avg_refs                16.217677                       # Average number of references to valid blocks.
system.l2cache.tags.warmup_cycle                    0                       # Cycle when the warmup percentage was hit.
system.l2cache.tags.occ_blocks::.writebacks    35.612096                       # Average occupied blocks per requestor
system.l2cache.tags.occ_blocks::.cpu.inst   990.776756                       # Average occupied blocks per requestor
system.l2cache.tags.occ_blocks::.cpu.data  1907.224365                       # Average occupied blocks per requestor
system.l2cache.tags.occ_blocks::.cpu.dcache.prefetcher   910.428031                       # Average occupied blocks per requestor
system.l2cache.tags.occ_blocks::.l2cache.prefetcher   251.958752                       # Average occupied blocks per requestor
system.l2cache.tags.occ_percent::.writebacks     0.008694                       # Average percentage of cache occupancy
system.l2cache.tags.occ_percent::.cpu.inst     0.241889                       # Average percentage of cache occupancy
system.l2cache.tags.occ_percent::.cpu.data     0.465631                       # Average percentage of cache occupancy
system.l2cache.tags.occ_percent::.cpu.dcache.prefetcher     0.222272                       # Average percentage of cache occupancy
system.l2cache.tags.occ_percent::.l2cache.prefetcher     0.061513                       # Average percentage of cache occupancy
system.l2cache.tags.occ_percent::total       1.000000                       # Average percentage of cache occupancy
system.l2cache.tags.occ_task_id_blocks::1022         1093                       # Occupied blocks per task id
system.l2cache.tags.occ_task_id_blocks::1024         3003                       # Occupied blocks per task id
system.l2cache.tags.age_task_id_blocks_1022::0           14                       # Occupied blocks per task id
system.l2cache.tags.age_task_id_blocks_1022::1           28                       # Occupied blocks per task id
system.l2cache.tags.age_task_id_blocks_1022::2            2                       # Occupied blocks per task id
system.l2cache.tags.age_task_id_blocks_1022::3         1049                       # Occupied blocks per task id
system.l2cache.tags.age_task_id_blocks_1024::0          183                       # Occupied blocks per task id
system.l2cache.tags.age_task_id_blocks_1024::1          250                       # Occupied blocks per task id
system.l2cache.tags.age_task_id_blocks_1024::2           97                       # Occupied blocks per task id
system.l2cache.tags.age_task_id_blocks_1024::3         2473                       # Occupied blocks per task id
system.l2cache.tags.occ_task_id_percent::1022     0.266846                       # Percentage of cache occupancy per task id
system.l2cache.tags.occ_task_id_percent::1024     0.733154                       # Percentage of cache occupancy per task id
system.l2cache.tags.tag_accesses                13971                       # Number of tag accesses
system.l2cache.tags.data_accesses               13971                       # Number of data accesses
system.mem_ctrl.pwrStateResidencyTicks::UNDEFINED     32545200                       # Cumulative time (in ticks) in various power states
system.mem_ctrl.bytes_read::.cpu.inst           16128                       # Number of bytes read from this memory
system.mem_ctrl.bytes_read::.cpu.data           11264                       # Number of bytes read from this memory
system.mem_ctrl.bytes_read::.cpu.dcache.prefetcher         2496                       # Number of bytes read from this memory
system.mem_ctrl.bytes_read::.l2cache.prefetcher          128                       # Number of bytes read from this memory
system.mem_ctrl.bytes_read::total               30016                       # Number of bytes read from this memory
system.mem_ctrl.bytes_inst_read::.cpu.inst        16128                       # Number of instructions bytes read from this memory
system.mem_ctrl.bytes_inst_read::total          16128                       # Number of instructions bytes read from this memory
system.mem_ctrl.bytes_written::.writebacks         2112                       # Number of bytes written to this memory
system.mem_ctrl.bytes_written::total             2112                       # Number of bytes written to this memory
system.mem_ctrl.num_reads::.cpu.inst              252                       # Number of read requests responded to by this memory
system.mem_ctrl.num_reads::.cpu.data              176                       # Number of read requests responded to by this memory
system.mem_ctrl.num_reads::.cpu.dcache.prefetcher           39                       # Number of read requests responded to by this memory
system.mem_ctrl.num_reads::.l2cache.prefetcher            2                       # Number of read requests responded to by this memory
system.mem_ctrl.num_reads::total                  469                       # Number of read requests responded to by this memory
system.mem_ctrl.num_writes::.writebacks            33                       # Number of write requests responded to by this memory
system.mem_ctrl.num_writes::total                  33                       # Number of write requests responded to by this memory
system.mem_ctrl.bw_read::.cpu.inst          495556948                       # Total read bandwidth from this memory (bytes/s)
system.mem_ctrl.bw_read::.cpu.data          346103266                       # Total read bandwidth from this memory (bytes/s)
system.mem_ctrl.bw_read::.cpu.dcache.prefetcher     76693337                       # Total read bandwidth from this memory (bytes/s)
system.mem_ctrl.bw_read::.l2cache.prefetcher      3932992                       # Total read bandwidth from this memory (bytes/s)
system.mem_ctrl.bw_read::total              922286543                       # Total read bandwidth from this memory (bytes/s)
system.mem_ctrl.bw_inst_read::.cpu.inst     495556948                       # Instruction read bandwidth from this memory (bytes/s)
system.mem_ctrl.bw_inst_read::total         495556948                       # Instruction read bandwidth from this memory (bytes/s)
system.mem_ctrl.bw_write::.writebacks        64894362                       # Write bandwidth from this memory (bytes/s)
system.mem_ctrl.bw_write::total              64894362                       # Write bandwidth from this memory (bytes/s)
system.mem_ctrl.bw_total::.writebacks        64894362                       # Total bandwidth to/from this memory (bytes/s)
system.mem_ctrl.bw_total::.cpu.inst         495556948                       # Total bandwidth to/from this memory (bytes/s)
system.mem_ctrl.bw_total::.cpu.data         346103266                       # Total bandwidth to/from this memory (bytes/s)
system.mem_ctrl.bw_total::.cpu.dcache.prefetcher     76693337                       # Total bandwidth to/from this memory (bytes/s)
system.mem_ctrl.bw_total::.l2cache.prefetcher      3932992                       # Total bandwidth to/from this memory (bytes/s)
system.mem_ctrl.bw_total::total             987180905                       # Total bandwidth to/from this memory (bytes/s)

---------- End Simulation Statistics   ----------
