
---------- Begin Simulation Statistics ----------
final_tick                                 1477667200                       # Number of ticks from beginning of simulation (restored from checkpoints and never reset)
host_inst_rate                                 191131                       # Simulator instruction rate (inst/s)
host_mem_usage                                4406824                       # Number of bytes of host memory used
host_op_rate                                   344325                       # Simulator op (including micro ops) rate (op/s)
host_seconds                                    16.94                       # Real time elapsed on the host
host_tick_rate                               87239934                       # Simulator tick rate (ticks/s)
sim_freq                                 1000000000000                       # Frequency of simulated ticks
sim_insts                                     3237354                       # Number of instructions simulated
sim_ops                                       5832165                       # Number of ops (including micro ops) simulated
sim_seconds                                  0.001478                       # Number of seconds simulated
sim_ticks                                  1477667200                       # Number of ticks simulated
system.cpu.branchPred.BTBCorrect                    0                       # Number of correct BTB predictions (this stat may not work properly.
system.cpu.branchPred.BTBHitPct              0.000000                       # BTB Hit Percentage
system.cpu.branchPred.BTBHits                       0                       # Number of BTB hits
system.cpu.branchPred.BTBLookups               651603                       # Number of BTB lookups
system.cpu.branchPred.RASInCorrect                  6                       # Number of incorrect RAS predictions.
system.cpu.branchPred.condIncorrect             28914                       # Number of conditional branches incorrect
system.cpu.branchPred.condPredicted            684337                       # Number of conditional branches predicted
system.cpu.branchPred.indirectHits             358084                       # Number of indirect target hits.
system.cpu.branchPred.indirectLookups          651603                       # Number of indirect predictor lookups.
system.cpu.branchPred.indirectMisses           293519                       # Number of indirect misses.
system.cpu.branchPred.lookups                  747923                       # Number of BP lookups
system.cpu.branchPred.usedRAS                   30212                       # Number of times the RAS was used to get a target.
system.cpu.branchPredindirectMispredicted        14836                       # Number of mispredicted indirect branches.
system.cpu.cc_regfile_reads                   3672349                       # number of cc regfile reads
system.cpu.cc_regfile_writes                  2708268                       # number of cc regfile writes
system.cpu.commit.amos                              0                       # Number of atomic instructions committed
system.cpu.commit.branchMispredicts             29019                       # The number of times a branch was mispredicted
system.cpu.commit.branches                     583124                       # Number of branches committed
system.cpu.commit.bw_lim_events                948048                       # number cycles where commit BW limit reached
system.cpu.commit.commitNonSpecStalls             745                       # The number of times commit has been forced to stall to communicate backwards
system.cpu.commit.commitSquashedInsts         1005213                       # The number of squashed insts skipped by commit
system.cpu.commit.committedInsts              3237354                       # Number of instructions committed
system.cpu.commit.committedOps                5832165                       # Number of ops (including micro ops) committed
system.cpu.commit.committed_per_cycle::samples      3254847                       # Number of insts commited each cycle
system.cpu.commit.committed_per_cycle::mean     1.791840                       # Number of insts commited each cycle
system.cpu.commit.committed_per_cycle::stdev     1.709646                       # Number of insts commited each cycle
system.cpu.commit.committed_per_cycle::underflows            0      0.00%      0.00% # Number of insts commited each cycle
system.cpu.commit.committed_per_cycle::0      1281963     39.39%     39.39% # Number of insts commited each cycle
system.cpu.commit.committed_per_cycle::1       372120     11.43%     50.82% # Number of insts commited each cycle
system.cpu.commit.committed_per_cycle::2       290295      8.92%     59.74% # Number of insts commited each cycle
system.cpu.commit.committed_per_cycle::3       362421     11.13%     70.87% # Number of insts commited each cycle
system.cpu.commit.committed_per_cycle::4       948048     29.13%    100.00% # Number of insts commited each cycle
system.cpu.commit.committed_per_cycle::overflows            0      0.00%    100.00% # Number of insts commited each cycle
system.cpu.commit.committed_per_cycle::min_value            0                       # Number of insts commited each cycle
system.cpu.commit.committed_per_cycle::max_value            4                       # Number of insts commited each cycle
system.cpu.commit.committed_per_cycle::total      3254847                       # Number of insts commited each cycle
system.cpu.commit.fp_insts                     148543                       # Number of committed floating point instructions.
system.cpu.commit.function_calls                27550                       # Number of function calls committed.
system.cpu.commit.int_insts                   5713621                       # Number of committed integer instructions.
system.cpu.commit.loads                        758037                       # Number of loads committed
system.cpu.commit.membars                           1                       # Number of memory barriers committed
system.cpu.commit.op_class_0::No_OpClass        28644      0.49%      0.49% # Class of committed instruction
system.cpu.commit.op_class_0::IntAlu          4550523     78.02%     78.52% # Class of committed instruction
system.cpu.commit.op_class_0::IntMult           13982      0.24%     78.76% # Class of committed instruction
system.cpu.commit.op_class_0::IntDiv            37728      0.65%     79.40% # Class of committed instruction
system.cpu.commit.op_class_0::FloatAdd           5961      0.10%     79.50% # Class of committed instruction
system.cpu.commit.op_class_0::FloatCmp              0      0.00%     79.50% # Class of committed instruction
system.cpu.commit.op_class_0::FloatCvt           1216      0.02%     79.53% # Class of committed instruction
system.cpu.commit.op_class_0::FloatMult             0      0.00%     79.53% # Class of committed instruction
system.cpu.commit.op_class_0::FloatMultAcc            0      0.00%     79.53% # Class of committed instruction
system.cpu.commit.op_class_0::FloatDiv              0      0.00%     79.53% # Class of committed instruction
system.cpu.commit.op_class_0::FloatMisc             0      0.00%     79.53% # Class of committed instruction
system.cpu.commit.op_class_0::FloatSqrt             0      0.00%     79.53% # Class of committed instruction
system.cpu.commit.op_class_0::SimdAdd            6262      0.11%     79.63% # Class of committed instruction
system.cpu.commit.op_class_0::SimdAddAcc            0      0.00%     79.63% # Class of committed instruction
system.cpu.commit.op_class_0::SimdAlu           23541      0.40%     80.04% # Class of committed instruction
system.cpu.commit.op_class_0::SimdCmp               0      0.00%     80.04% # Class of committed instruction
system.cpu.commit.op_class_0::SimdCvt           24504      0.42%     80.46% # Class of committed instruction
system.cpu.commit.op_class_0::SimdMisc          34220      0.59%     81.04% # Class of committed instruction
system.cpu.commit.op_class_0::SimdMult              0      0.00%     81.04% # Class of committed instruction
system.cpu.commit.op_class_0::SimdMultAcc            0      0.00%     81.04% # Class of committed instruction
system.cpu.commit.op_class_0::SimdShift          1162      0.02%     81.06% # Class of committed instruction
system.cpu.commit.op_class_0::SimdShiftAcc            0      0.00%     81.06% # Class of committed instruction
system.cpu.commit.op_class_0::SimdDiv               0      0.00%     81.06% # Class of committed instruction
system.cpu.commit.op_class_0::SimdSqrt              0      0.00%     81.06% # Class of committed instruction
system.cpu.commit.op_class_0::SimdFloatAdd            0      0.00%     81.06% # Class of committed instruction
system.cpu.commit.op_class_0::SimdFloatAlu            0      0.00%     81.06% # Class of committed instruction
system.cpu.commit.op_class_0::SimdFloatCmp            0      0.00%     81.06% # Class of committed instruction
system.cpu.commit.op_class_0::SimdFloatCvt            0      0.00%     81.06% # Class of committed instruction
system.cpu.commit.op_class_0::SimdFloatDiv            0      0.00%     81.06% # Class of committed instruction
system.cpu.commit.op_class_0::SimdFloatMisc            0      0.00%     81.06% # Class of committed instruction
system.cpu.commit.op_class_0::SimdFloatMult            0      0.00%     81.06% # Class of committed instruction
system.cpu.commit.op_class_0::SimdFloatMultAcc            0      0.00%     81.06% # Class of committed instruction
system.cpu.commit.op_class_0::SimdFloatSqrt            0      0.00%     81.06% # Class of committed instruction
system.cpu.commit.op_class_0::SimdReduceAdd            0      0.00%     81.06% # Class of committed instruction
system.cpu.commit.op_class_0::SimdReduceAlu            0      0.00%     81.06% # Class of committed instruction
system.cpu.commit.op_class_0::SimdReduceCmp            0      0.00%     81.06% # Class of committed instruction
system.cpu.commit.op_class_0::SimdFloatReduceAdd            0      0.00%     81.06% # Class of committed instruction
system.cpu.commit.op_class_0::SimdFloatReduceCmp            0      0.00%     81.06% # Class of committed instruction
system.cpu.commit.op_class_0::SimdAes               0      0.00%     81.06% # Class of committed instruction
system.cpu.commit.op_class_0::SimdAesMix            0      0.00%     81.06% # Class of committed instruction
system.cpu.commit.op_class_0::SimdSha1Hash            0      0.00%     81.06% # Class of committed instruction
system.cpu.commit.op_class_0::SimdSha1Hash2            0      0.00%     81.06% # Class of committed instruction
system.cpu.commit.op_class_0::SimdSha256Hash            0      0.00%     81.06% # Class of committed instruction
system.cpu.commit.op_class_0::SimdSha256Hash2            0      0.00%     81.06% # Class of committed instruction
system.cpu.commit.op_class_0::SimdShaSigma2            0      0.00%     81.06% # Class of committed instruction
system.cpu.commit.op_class_0::SimdShaSigma3            0      0.00%     81.06% # Class of committed instruction
system.cpu.commit.op_class_0::SimdPredAlu            0      0.00%     81.06% # Class of committed instruction
system.cpu.commit.op_class_0::MemRead          730575     12.53%     93.59% # Class of committed instruction
system.cpu.commit.op_class_0::MemWrite         332226      5.70%     99.29% # Class of committed instruction
system.cpu.commit.op_class_0::FloatMemRead        27462      0.47%     99.76% # Class of committed instruction
system.cpu.commit.op_class_0::FloatMemWrite        14159      0.24%    100.00% # Class of committed instruction
system.cpu.commit.op_class_0::IprAccess             0      0.00%    100.00% # Class of committed instruction
system.cpu.commit.op_class_0::InstPrefetch            0      0.00%    100.00% # Class of committed instruction
system.cpu.commit.op_class_0::total           5832165                       # Class of committed instruction
system.cpu.commit.refs                        1104422                       # Number of memory references committed
system.cpu.commit.swp_count                         0                       # Number of s/w prefetches committed
system.cpu.commit.vec_insts                         0                       # Number of committed Vector instructions.
system.cpu.committedInsts                     3237354                       # Number of Instructions Simulated
system.cpu.committedOps                       5832165                       # Number of Ops (including micro ops) Simulated
system.cpu.cpi                               1.141108                       # CPI: Cycles Per Instruction
system.cpu.cpi_total                         1.141108                       # CPI: Total CPI of All Threads
system.cpu.dcache.prefetcher.num_hwpf_issued         8061                       # number of hwpf issued
system.cpu.dcache.prefetcher.pfBufferHit        34139                       # number of redundant prefetches already in prefetch queue
system.cpu.dcache.prefetcher.pfIdentified        49524                       # number of prefetch candidates identified
system.cpu.dcache.prefetcher.pfInCache              0                       # number of redundant prefetches already in cache/mshr dropped
system.cpu.dcache.prefetcher.pfRemovedFull            0                       # number of prefetches dropped due to prefetch queue size
system.cpu.dcache.prefetcher.pfSpanPage          4492                       # number of prefetches that crossed the page
system.cpu.decode.BlockedCycles               1061426                       # Number of cycles decode is blocked
system.cpu.decode.DecodedInsts                7089627                       # Number of instructions handled by decode
system.cpu.decode.IdleCycles                   525310                       # Number of cycles decode is idle
system.cpu.decode.RunCycles                   1816250                       # Number of cycles decode is running
system.cpu.decode.SquashCycles                  29104                       # Number of cycles decode is squashing
system.cpu.decode.UnblockCycles                 96481                       # Number of cycles decode is unblocking
system.cpu.dtb.rdAccesses                      854787                       # TLB accesses on read requests
system.cpu.dtb.rdMisses                          1952                       # TLB misses on read requests
system.cpu.dtb.wrAccesses                      368978                       # TLB accesses on write requests
system.cpu.dtb.wrMisses                           171                       # TLB misses on write requests
system.cpu.fetch.Branches                      747923                       # Number of branches that fetch encountered
system.cpu.fetch.CacheLines                    448834                       # Number of cache lines fetched
system.cpu.fetch.Cycles                       2946773                       # Number of cycles fetch has run and was not squashing or blocked
system.cpu.fetch.IcacheSquashes                  5781                       # Number of outstanding Icache misses that were squashed
system.cpu.fetch.Insts                        4102442                       # Number of instructions fetch has processed
system.cpu.fetch.MiscStallCycles                  146                       # Number of cycles fetch has spent waiting on interrupts, or bad addresses, or out of MSHRs
system.cpu.fetch.PendingQuiesceStallCycles            6                       # Number of stall cycles due to pending quiesce instructions
system.cpu.fetch.PendingTrapStallCycles           706                       # Number of stall cycles due to pending traps
system.cpu.fetch.SquashCycles                   58208                       # Number of cycles fetch has spent squashing
system.cpu.fetch.branchRate                  0.202460                       # Number of branch fetches per cycle
system.cpu.fetch.icacheStallCycles             551836                       # Number of cycles fetch is stalled on an Icache miss
system.cpu.fetch.predictedBranches             388296                       # Number of branches that fetch has predicted taken
system.cpu.fetch.rate                        1.110518                       # Number of inst fetches per cycle
system.cpu.fetch.rateDist::samples            3528571                       # Number of instructions fetched each cycle (Total)
system.cpu.fetch.rateDist::mean              2.091668                       # Number of instructions fetched each cycle (Total)
system.cpu.fetch.rateDist::stdev             1.910938                       # Number of instructions fetched each cycle (Total)
system.cpu.fetch.rateDist::underflows               0      0.00%      0.00% # Number of instructions fetched each cycle (Total)
system.cpu.fetch.rateDist::0                  1488792     42.19%     42.19% # Number of instructions fetched each cycle (Total)
system.cpu.fetch.rateDist::1                   159653      4.52%     46.72% # Number of instructions fetched each cycle (Total)
system.cpu.fetch.rateDist::2                    89111      2.53%     49.24% # Number of instructions fetched each cycle (Total)
system.cpu.fetch.rateDist::3                   121337      3.44%     52.68% # Number of instructions fetched each cycle (Total)
system.cpu.fetch.rateDist::4                  1669678     47.32%    100.00% # Number of instructions fetched each cycle (Total)
system.cpu.fetch.rateDist::overflows                0      0.00%    100.00% # Number of instructions fetched each cycle (Total)
system.cpu.fetch.rateDist::min_value                0                       # Number of instructions fetched each cycle (Total)
system.cpu.fetch.rateDist::max_value                4                       # Number of instructions fetched each cycle (Total)
system.cpu.fetch.rateDist::total              3528571                       # Number of instructions fetched each cycle (Total)
system.cpu.fp_regfile_reads                    249060                       # number of floating regfile reads
system.cpu.fp_regfile_writes                   133037                       # number of floating regfile writes
system.cpu.fuPool.fu_ticks_busy::IntALU(0)    336020800                       # Total ticks fu was busy
system.cpu.fuPool.fu_ticks_busy::IntALU(1)    336020800                       # Total ticks fu was busy
system.cpu.fuPool.fu_ticks_busy::IntALU(2)    336020400                       # Total ticks fu was busy
system.cpu.fuPool.fu_ticks_busy::IntALU(3)    336020400                       # Total ticks fu was busy
system.cpu.fuPool.fu_ticks_busy::IntALU(4)    336020400                       # Total ticks fu was busy
system.cpu.fuPool.fu_ticks_busy::IntALU(5)    336020400                       # Total ticks fu was busy
system.cpu.fuPool.fu_ticks_busy::IntMultDiv(0)     11132400                       # Total ticks fu was busy
system.cpu.fuPool.fu_ticks_busy::IntMultDiv(1)     11131600                       # Total ticks fu was busy
system.cpu.fuPool.fu_ticks_busy::FP_ALU(0)       876800                       # Total ticks fu was busy
system.cpu.fuPool.fu_ticks_busy::FP_ALU(1)       876800                       # Total ticks fu was busy
system.cpu.fuPool.fu_ticks_busy::FP_ALU(2)       876000                       # Total ticks fu was busy
system.cpu.fuPool.fu_ticks_busy::FP_ALU(3)       876000                       # Total ticks fu was busy
system.cpu.fuPool.fu_ticks_busy::FP_MultDiv(0)            0                       # Total ticks fu was busy
system.cpu.fuPool.fu_ticks_busy::FP_MultDiv(1)            0                       # Total ticks fu was busy
system.cpu.fuPool.fu_ticks_busy::SIMD_Unit(0)      9994400                       # Total ticks fu was busy
system.cpu.fuPool.fu_ticks_busy::SIMD_Unit(1)      9758400                       # Total ticks fu was busy
system.cpu.fuPool.fu_ticks_busy::SIMD_Unit(2)      9319600                       # Total ticks fu was busy
system.cpu.fuPool.fu_ticks_busy::SIMD_Unit(3)      9962000                       # Total ticks fu was busy
system.cpu.fuPool.fu_ticks_busy::PredALU(0)            0                       # Total ticks fu was busy
system.cpu.fuPool.fu_ticks_busy::RdWrPort(0)    124080400                       # Total ticks fu was busy
system.cpu.fuPool.fu_ticks_busy::RdWrPort(1)    124044800                       # Total ticks fu was busy
system.cpu.fuPool.fu_ticks_busy::RdWrPort(2)    124124800                       # Total ticks fu was busy
system.cpu.fuPool.fu_ticks_busy::RdWrPort(3)    123981600                       # Total ticks fu was busy
system.cpu.fuPool.fu_ticks_busy::IprPort(0)            0                       # Total ticks fu was busy
system.cpu.fuPool.fu_ticks_busy::total     2577158800                       # Total ticks fu was busy
system.cpu.icache.prefetcher.num_hwpf_issued            0                       # number of hwpf issued
system.cpu.icache.prefetcher.pfBufferHit            0                       # number of redundant prefetches already in prefetch queue
system.cpu.icache.prefetcher.pfIdentified            0                       # number of prefetch candidates identified
system.cpu.icache.prefetcher.pfInCache              0                       # number of redundant prefetches already in cache/mshr dropped
system.cpu.icache.prefetcher.pfRemovedFull            0                       # number of prefetches dropped due to prefetch queue size
system.cpu.icache.prefetcher.pfSpanPage             0                       # number of prefetches that crossed the page
system.cpu.idleCycles                          165598                       # Total number of cycles that the CPU has spent unscheduled due to idling
system.cpu.iew.branchMispredicts                34332                       # Number of branch mispredicts detected at execute
system.cpu.iew.exec_branches                   620053                       # Number of branches executed
system.cpu.iew.exec_nop                             0                       # number of nop insts executed
system.cpu.iew.exec_rate                     1.742361                       # Inst execution rate
system.cpu.iew.exec_refs                      1225067                       # number of memory reference insts executed
system.cpu.iew.exec_stores                     368516                       # Number of stores executed
system.cpu.iew.exec_swp                             0                       # number of swp insts executed
system.cpu.iew.iewBlockCycles                  713229                       # Number of cycles IEW is blocking
system.cpu.iew.iewDispLoadInsts                894365                       # Number of dispatched load instructions
system.cpu.iew.iewDispNonSpecInsts                959                       # Number of dispatched non-speculative instructions
system.cpu.iew.iewDispSquashedInsts               624                       # Number of squashed instructions skipped by dispatch
system.cpu.iew.iewDispStoreInsts               383416                       # Number of dispatched store instructions
system.cpu.iew.iewDispatchedInsts             6837326                       # Number of instructions dispatched to IQ
system.cpu.iew.iewExecLoadInsts                856551                       # Number of load instructions executed
system.cpu.iew.iewExecSquashedInsts             41989                       # Number of squashed instructions skipped in execute
system.cpu.iew.iewExecutedInsts               6436576                       # Number of executed instructions
system.cpu.iew.iewIQFullEvents                   3326                       # Number of times the IQ has become full, causing a stall
system.cpu.iew.iewIdleCycles                        0                       # Number of cycles IEW is idle
system.cpu.iew.iewLSQFullEvents                 10359                       # Number of times the LSQ has become full, causing a stall
system.cpu.iew.iewSquashCycles                  29104                       # Number of cycles IEW is squashing
system.cpu.iew.iewUnblockCycles                 16537                       # Number of cycles IEW is unblocking
system.cpu.iew.lsq.thread0.blockedLoads             0                       # Number of blocked loads due to partial load-store forwarding
system.cpu.iew.lsq.thread0.cacheBlocked           620                       # Number of times an access to memory failed due to the cache being blocked
system.cpu.iew.lsq.thread0.forwLoads            54680                       # Number of loads that had data forwarded from stores
system.cpu.iew.lsq.thread0.ignoredResponses          282                       # Number of memory responses ignored because the instruction is squashed
system.cpu.iew.lsq.thread0.invAddrLoads             0                       # Number of loads ignored due to an invalid address
system.cpu.iew.lsq.thread0.invAddrSwpfs             0                       # Number of software prefetches ignored due to an invalid address
system.cpu.iew.lsq.thread0.memOrderViolation          100                       # Number of memory ordering violations
system.cpu.iew.lsq.thread0.rescheduledLoads           63                       # Number of loads that were rescheduled
system.cpu.iew.lsq.thread0.squashedLoads       136326                       # Number of loads squashed
system.cpu.iew.lsq.thread0.squashedStores        37030                       # Number of stores squashed
system.cpu.iew.memOrderViolationEvents            100                       # Number of memory order violations
system.cpu.iew.predictedNotTakenIncorrect        24825                       # Number of branches that were predicted not taken incorrectly
system.cpu.iew.predictedTakenIncorrect           9507                       # Number of branches that were predicted taken incorrectly
system.cpu.iew.wb_consumers                   8406654                       # num instructions consuming a value
system.cpu.iew.wb_count                       6412000                       # cumulative count of insts written-back
system.cpu.iew.wb_fanout                     0.584831                       # average fanout of values written-back
system.cpu.iew.wb_producers                   4916471                       # num instructions producing a value
system.cpu.iew.wb_rate                       1.735708                       # insts written-back per cycle
system.cpu.iew.wb_sent                        6419876                       # cumulative count of insts sent to commit
system.cpu.int_regfile_reads                  9864440                       # number of integer regfile reads
system.cpu.int_regfile_writes                 5374069                       # number of integer regfile writes
system.cpu.ipc                               0.876342                       # IPC: Instructions Per Cycle
system.cpu.ipc_total                         0.876342                       # IPC: Total IPC of All Threads
system.cpu.iq.FU_type_0::No_OpClass             35668      0.55%      0.55% # Type of FU issued
system.cpu.iq.FU_type_0::IntAlu               5040309     77.80%     78.35% # Type of FU issued
system.cpu.iq.FU_type_0::IntMult                14007      0.22%     78.57% # Type of FU issued
system.cpu.iq.FU_type_0::IntDiv                 41653      0.64%     79.21% # Type of FU issued
system.cpu.iq.FU_type_0::FloatAdd                7506      0.12%     79.33% # Type of FU issued
system.cpu.iq.FU_type_0::FloatCmp                   0      0.00%     79.33% # Type of FU issued
system.cpu.iq.FU_type_0::FloatCvt                1258      0.02%     79.34% # Type of FU issued
system.cpu.iq.FU_type_0::FloatMult                  0      0.00%     79.34% # Type of FU issued
system.cpu.iq.FU_type_0::FloatMultAcc               0      0.00%     79.34% # Type of FU issued
system.cpu.iq.FU_type_0::FloatDiv                   0      0.00%     79.34% # Type of FU issued
system.cpu.iq.FU_type_0::FloatMisc                  0      0.00%     79.34% # Type of FU issued
system.cpu.iq.FU_type_0::FloatSqrt                  0      0.00%     79.34% # Type of FU issued
system.cpu.iq.FU_type_0::SimdAdd                 6929      0.11%     79.45% # Type of FU issued
system.cpu.iq.FU_type_0::SimdAddAcc                 0      0.00%     79.45% # Type of FU issued
system.cpu.iq.FU_type_0::SimdAlu                27254      0.42%     79.87% # Type of FU issued
system.cpu.iq.FU_type_0::SimdCmp                    0      0.00%     79.87% # Type of FU issued
system.cpu.iq.FU_type_0::SimdCvt                26335      0.41%     80.28% # Type of FU issued
system.cpu.iq.FU_type_0::SimdMisc               34819      0.54%     80.82% # Type of FU issued
system.cpu.iq.FU_type_0::SimdMult                   0      0.00%     80.82% # Type of FU issued
system.cpu.iq.FU_type_0::SimdMultAcc                0      0.00%     80.82% # Type of FU issued
system.cpu.iq.FU_type_0::SimdShift               2249      0.03%     80.85% # Type of FU issued
system.cpu.iq.FU_type_0::SimdShiftAcc               0      0.00%     80.85% # Type of FU issued
system.cpu.iq.FU_type_0::SimdDiv                    0      0.00%     80.85% # Type of FU issued
system.cpu.iq.FU_type_0::SimdSqrt                   0      0.00%     80.85% # Type of FU issued
system.cpu.iq.FU_type_0::SimdFloatAdd               0      0.00%     80.85% # Type of FU issued
system.cpu.iq.FU_type_0::SimdFloatAlu               0      0.00%     80.85% # Type of FU issued
system.cpu.iq.FU_type_0::SimdFloatCmp               0      0.00%     80.85% # Type of FU issued
system.cpu.iq.FU_type_0::SimdFloatCvt               0      0.00%     80.85% # Type of FU issued
system.cpu.iq.FU_type_0::SimdFloatDiv               0      0.00%     80.85% # Type of FU issued
system.cpu.iq.FU_type_0::SimdFloatMisc              0      0.00%     80.85% # Type of FU issued
system.cpu.iq.FU_type_0::SimdFloatMult              0      0.00%     80.85% # Type of FU issued
system.cpu.iq.FU_type_0::SimdFloatMultAcc            0      0.00%     80.85% # Type of FU issued
system.cpu.iq.FU_type_0::SimdFloatSqrt              0      0.00%     80.85% # Type of FU issued
system.cpu.iq.FU_type_0::SimdReduceAdd              0      0.00%     80.85% # Type of FU issued
system.cpu.iq.FU_type_0::SimdReduceAlu              0      0.00%     80.85% # Type of FU issued
system.cpu.iq.FU_type_0::SimdReduceCmp              0      0.00%     80.85% # Type of FU issued
system.cpu.iq.FU_type_0::SimdFloatReduceAdd            0      0.00%     80.85% # Type of FU issued
system.cpu.iq.FU_type_0::SimdFloatReduceCmp            0      0.00%     80.85% # Type of FU issued
system.cpu.iq.FU_type_0::SimdAes                    0      0.00%     80.85% # Type of FU issued
system.cpu.iq.FU_type_0::SimdAesMix                 0      0.00%     80.85% # Type of FU issued
system.cpu.iq.FU_type_0::SimdSha1Hash               0      0.00%     80.85% # Type of FU issued
system.cpu.iq.FU_type_0::SimdSha1Hash2              0      0.00%     80.85% # Type of FU issued
system.cpu.iq.FU_type_0::SimdSha256Hash             0      0.00%     80.85% # Type of FU issued
system.cpu.iq.FU_type_0::SimdSha256Hash2            0      0.00%     80.85% # Type of FU issued
system.cpu.iq.FU_type_0::SimdShaSigma2              0      0.00%     80.85% # Type of FU issued
system.cpu.iq.FU_type_0::SimdShaSigma3              0      0.00%     80.85% # Type of FU issued
system.cpu.iq.FU_type_0::SimdPredAlu                0      0.00%     80.85% # Type of FU issued
system.cpu.iq.FU_type_0::MemRead               835551     12.90%     93.75% # Type of FU issued
system.cpu.iq.FU_type_0::MemWrite              355960      5.49%     99.24% # Type of FU issued
system.cpu.iq.FU_type_0::FloatMemRead           33490      0.52%     99.76% # Type of FU issued
system.cpu.iq.FU_type_0::FloatMemWrite          15580      0.24%    100.00% # Type of FU issued
system.cpu.iq.FU_type_0::IprAccess                  0      0.00%    100.00% # Type of FU issued
system.cpu.iq.FU_type_0::InstPrefetch               0      0.00%    100.00% # Type of FU issued
system.cpu.iq.FU_type_0::total                6478568                       # Type of FU issued
system.cpu.iq.fp_alu_accesses                  165651                       # Number of floating point alu accesses
system.cpu.iq.fp_inst_queue_reads              332621                       # Number of floating instruction queue reads
system.cpu.iq.fp_inst_queue_wakeup_accesses       162121                       # Number of floating instruction queue wakeup accesses
system.cpu.iq.fp_inst_queue_writes             206955                       # Number of floating instruction queue writes
system.cpu.iq.fu_busy_cnt                           0                       # FU busy when requested
system.cpu.iq.fu_busy_rate                          0                       # FU busy rate (busy events/executed inst)
system.cpu.iq.fu_full::No_OpClass                   0                       # attempts to use FU when none available
system.cpu.iq.fu_full::IntAlu                       0                       # attempts to use FU when none available
system.cpu.iq.fu_full::IntMult                      0                       # attempts to use FU when none available
system.cpu.iq.fu_full::IntDiv                       0                       # attempts to use FU when none available
system.cpu.iq.fu_full::FloatAdd                     0                       # attempts to use FU when none available
system.cpu.iq.fu_full::FloatCmp                     0                       # attempts to use FU when none available
system.cpu.iq.fu_full::FloatCvt                     0                       # attempts to use FU when none available
system.cpu.iq.fu_full::FloatMult                    0                       # attempts to use FU when none available
system.cpu.iq.fu_full::FloatMultAcc                 0                       # attempts to use FU when none available
system.cpu.iq.fu_full::FloatDiv                     0                       # attempts to use FU when none available
system.cpu.iq.fu_full::FloatMisc                    0                       # attempts to use FU when none available
system.cpu.iq.fu_full::FloatSqrt                    0                       # attempts to use FU when none available
system.cpu.iq.fu_full::SimdAdd                      0                       # attempts to use FU when none available
system.cpu.iq.fu_full::SimdAddAcc                   0                       # attempts to use FU when none available
system.cpu.iq.fu_full::SimdAlu                      0                       # attempts to use FU when none available
system.cpu.iq.fu_full::SimdCmp                      0                       # attempts to use FU when none available
system.cpu.iq.fu_full::SimdCvt                      0                       # attempts to use FU when none available
system.cpu.iq.fu_full::SimdMisc                     0                       # attempts to use FU when none available
system.cpu.iq.fu_full::SimdMult                     0                       # attempts to use FU when none available
system.cpu.iq.fu_full::SimdMultAcc                  0                       # attempts to use FU when none available
system.cpu.iq.fu_full::SimdShift                    0                       # attempts to use FU when none available
system.cpu.iq.fu_full::SimdShiftAcc                 0                       # attempts to use FU when none available
system.cpu.iq.fu_full::SimdDiv                      0                       # attempts to use FU when none available
system.cpu.iq.fu_full::SimdSqrt                     0                       # attempts to use FU when none available
system.cpu.iq.fu_full::SimdFloatAdd                 0                       # attempts to use FU when none available
system.cpu.iq.fu_full::SimdFloatAlu                 0                       # attempts to use FU when none available
system.cpu.iq.fu_full::SimdFloatCmp                 0                       # attempts to use FU when none available
system.cpu.iq.fu_full::SimdFloatCvt                 0                       # attempts to use FU when none available
system.cpu.iq.fu_full::SimdFloatDiv                 0                       # attempts to use FU when none available
system.cpu.iq.fu_full::SimdFloatMisc                0                       # attempts to use FU when none available
system.cpu.iq.fu_full::SimdFloatMult                0                       # attempts to use FU when none available
system.cpu.iq.fu_full::SimdFloatMultAcc             0                       # attempts to use FU when none available
system.cpu.iq.fu_full::SimdFloatSqrt                0                       # attempts to use FU when none available
system.cpu.iq.fu_full::SimdReduceAdd                0                       # attempts to use FU when none available
system.cpu.iq.fu_full::SimdReduceAlu                0                       # attempts to use FU when none available
system.cpu.iq.fu_full::SimdReduceCmp                0                       # attempts to use FU when none available
system.cpu.iq.fu_full::SimdFloatReduceAdd            0                       # attempts to use FU when none available
system.cpu.iq.fu_full::SimdFloatReduceCmp            0                       # attempts to use FU when none available
system.cpu.iq.fu_full::SimdAes                      0                       # attempts to use FU when none available
system.cpu.iq.fu_full::SimdAesMix                   0                       # attempts to use FU when none available
system.cpu.iq.fu_full::SimdSha1Hash                 0                       # attempts to use FU when none available
system.cpu.iq.fu_full::SimdSha1Hash2                0                       # attempts to use FU when none available
system.cpu.iq.fu_full::SimdSha256Hash               0                       # attempts to use FU when none available
system.cpu.iq.fu_full::SimdSha256Hash2              0                       # attempts to use FU when none available
system.cpu.iq.fu_full::SimdShaSigma2                0                       # attempts to use FU when none available
system.cpu.iq.fu_full::SimdShaSigma3                0                       # attempts to use FU when none available
system.cpu.iq.fu_full::SimdPredAlu                  0                       # attempts to use FU when none available
system.cpu.iq.fu_full::MemRead                      0                       # attempts to use FU when none available
system.cpu.iq.fu_full::MemWrite                     0                       # attempts to use FU when none available
system.cpu.iq.fu_full::FloatMemRead                 0                       # attempts to use FU when none available
system.cpu.iq.fu_full::FloatMemWrite                0                       # attempts to use FU when none available
system.cpu.iq.fu_full::IprAccess                    0                       # attempts to use FU when none available
system.cpu.iq.fu_full::InstPrefetch                 0                       # attempts to use FU when none available
system.cpu.iq.int_alu_accesses                6277249                       # Number of integer alu accesses
system.cpu.iq.int_inst_queue_reads           16173925                       # Number of integer instruction queue reads
system.cpu.iq.int_inst_queue_wakeup_accesses      6249879                       # Number of integer instruction queue wakeup accesses
system.cpu.iq.int_inst_queue_writes           7635619                       # Number of integer instruction queue writes
system.cpu.iq.iqInstsAdded                    6836143                       # Number of instructions added to the IQ (excludes non-spec)
system.cpu.iq.iqInstsIssued                   6478568                       # Number of instructions issued
system.cpu.iq.iqNonSpecInstsAdded                1183                       # Number of non-speculative instructions added to the IQ
system.cpu.iq.iqSquashedInstsExamined         1005150                       # Number of squashed instructions iterated over during squash; mainly for profiling
system.cpu.iq.iqSquashedInstsIssued             20842                       # Number of squashed instructions issued
system.cpu.iq.iqSquashedNonSpecRemoved            438                       # Number of squashed non-spec instructions that were removed
system.cpu.iq.iqSquashedOperandsExamined      1483705                       # Number of squashed operands that are examined and possibly removed from graph
system.cpu.iq.issued_per_cycle::samples       3528571                       # Number of insts issued each cycle
system.cpu.iq.issued_per_cycle::mean         1.836032                       # Number of insts issued each cycle
system.cpu.iq.issued_per_cycle::stdev        1.636634                       # Number of insts issued each cycle
system.cpu.iq.issued_per_cycle::underflows            0      0.00%      0.00% # Number of insts issued each cycle
system.cpu.iq.issued_per_cycle::0             1288947     36.53%     36.53% # Number of insts issued each cycle
system.cpu.iq.issued_per_cycle::1              318880      9.04%     45.57% # Number of insts issued each cycle
system.cpu.iq.issued_per_cycle::2              479307     13.58%     59.15% # Number of insts issued each cycle
system.cpu.iq.issued_per_cycle::3              564674     16.00%     75.15% # Number of insts issued each cycle
system.cpu.iq.issued_per_cycle::4              876763     24.85%    100.00% # Number of insts issued each cycle
system.cpu.iq.issued_per_cycle::overflows            0      0.00%    100.00% # Number of insts issued each cycle
system.cpu.iq.issued_per_cycle::min_value            0                       # Number of insts issued each cycle
system.cpu.iq.issued_per_cycle::max_value            4                       # Number of insts issued each cycle
system.cpu.iq.issued_per_cycle::total         3528571                       # Number of insts issued each cycle
system.cpu.iq.rate                           1.753728                       # Inst issue rate
system.cpu.iq.vec_alu_accesses                      0                       # Number of vector alu accesses
system.cpu.iq.vec_inst_queue_reads                  0                       # Number of vector instruction queue reads
system.cpu.iq.vec_inst_queue_wakeup_accesses            0                       # Number of vector instruction queue wakeup accesses
system.cpu.iq.vec_inst_queue_writes                 0                       # Number of vector instruction queue writes
system.cpu.itb.rdAccesses                           0                       # TLB accesses on read requests
system.cpu.itb.rdMisses                             0                       # TLB misses on read requests
system.cpu.itb.wrAccesses                      448958                       # TLB accesses on write requests
system.cpu.itb.wrMisses                           377                       # TLB misses on write requests
system.cpu.memDep0.conflictingLoads             21935                       # Number of conflicting loads.
system.cpu.memDep0.conflictingStores             6591                       # Number of conflicting stores.
system.cpu.memDep0.insertedLoads               894365                       # Number of loads inserted to the mem dependence unit.
system.cpu.memDep0.insertedStores              383416                       # Number of stores inserted to the mem dependence unit.
system.cpu.misc_regfile_reads                 2512310                       # number of misc regfile reads
system.cpu.misc_regfile_writes                    684                       # number of misc regfile writes
system.cpu.numCycles                          3694169                       # number of cpu cycles simulated
system.cpu.numWorkItemsCompleted                    0                       # number of work items this cpu completed
system.cpu.numWorkItemsStarted                      0                       # number of work items this cpu started
system.cpu.process.numSyscalls                     60                       # Number of system calls
system.cpu.rename.BlockCycles                  865492                       # Number of cycles rename is blocking
system.cpu.rename.CommittedMaps               7515755                       # Number of HB maps that are committed
system.cpu.rename.FullRegisterEvents              132                       # Number of times there has been no free registers
system.cpu.rename.IQFullEvents                  51489                       # Number of times rename has blocked due to IQ full
system.cpu.rename.IdleCycles                   580969                       # Number of cycles rename is idle
system.cpu.rename.LQFullEvents                  17338                       # Number of times rename has blocked due to LQ full
system.cpu.rename.ROBFullEvents                  4865                       # Number of times rename has blocked due to ROB full
system.cpu.rename.RenameLookups              18162083                       # Number of register rename lookups that rename has made
system.cpu.rename.RenamedInsts                7004457                       # Number of instructions processed by rename
system.cpu.rename.RenamedOperands             9070437                       # Number of destination operands rename has renamed
system.cpu.rename.RunCycles                   1847986                       # Number of cycles rename is running
system.cpu.rename.SQFullEvents                  76746                       # Number of times rename has blocked due to SQ full
system.cpu.rename.SquashCycles                  29104                       # Number of cycles rename is squashing
system.cpu.rename.UnblockCycles                184834                       # Number of cycles rename is unblocking
system.cpu.rename.UndoneMaps                  1554659                       # Number of HB maps that are undone due to squashing
system.cpu.rename.fp_rename_lookups            284273                       # Number of floating rename lookups
system.cpu.rename.int_rename_lookups         10941086                       # Number of integer rename lookups
system.cpu.rename.serializeStallCycles          20186                       # count of cycles rename stalled for serializing inst
system.cpu.rename.serializingInsts                881                       # count of serializing insts renamed
system.cpu.rename.skidInsts                    219997                       # count of insts added to the skid buffer
system.cpu.rename.tempSerializingInsts            930                       # count of temporary serializing insts renamed
system.cpu.rob.rob_reads                      9144177                       # The number of ROB reads
system.cpu.rob.rob_writes                    13949496                       # The number of ROB writes
system.cpu.timesIdled                            2018                       # Number of times that the entire CPU went into an idle state and unscheduled itself
system.l2bus.snoop_filter.hit_multi_requests            9                       # Number of requests hitting in the snoop filter with multiple (>1) holders of the requested data.
system.l2bus.snoop_filter.hit_multi_snoops            0                       # Number of snoops hitting in the snoop filter with multiple (>1) holders of the requested data.
system.l2bus.snoop_filter.hit_single_requests        19632                       # Number of requests hitting in the snoop filter with a single holder of the requested data.
system.l2bus.snoop_filter.hit_single_snoops          440                       # Number of snoops hitting in the snoop filter with a single holder of the requested data.
system.l2bus.snoop_filter.tot_requests          40542                       # Total number of requests made to the snoop filter.
system.l2bus.snoop_filter.tot_snoops              440                       # Total number of snoops made to the snoop filter.
system.l2cache.prefetcher.num_hwpf_issued          769                       # number of hwpf issued
system.l2cache.prefetcher.pfBufferHit               0                       # number of redundant prefetches already in prefetch queue
system.l2cache.prefetcher.pfIdentified            769                       # number of prefetch candidates identified
system.l2cache.prefetcher.pfInCache                 0                       # number of redundant prefetches already in cache/mshr dropped
system.l2cache.prefetcher.pfRemovedFull             0                       # number of prefetches dropped due to prefetch queue size
system.l2cache.prefetcher.pfSpanPage              107                       # number of prefetches that crossed the page
system.membus.snoop_filter.hit_multi_requests            0                       # Number of requests hitting in the snoop filter with multiple (>1) holders of the requested data.
system.membus.snoop_filter.hit_multi_snoops            0                       # Number of snoops hitting in the snoop filter with multiple (>1) holders of the requested data.
system.membus.snoop_filter.hit_single_requests         9595                       # Number of requests hitting in the snoop filter with a single holder of the requested data.
system.membus.snoop_filter.hit_single_snoops            0                       # Number of snoops hitting in the snoop filter with a single holder of the requested data.
system.membus.snoop_filter.tot_requests         23312                       # Total number of requests made to the snoop filter.
system.membus.snoop_filter.tot_snoops               0                       # Total number of snoops made to the snoop filter.
system.membus.pwrStateResidencyTicks::UNDEFINED   1477667200                       # Cumulative time (in ticks) in various power states
system.membus.trans_dist::ReadResp              12238                       # Transaction distribution
system.membus.trans_dist::WritebackDirty         1341                       # Transaction distribution
system.membus.trans_dist::CleanEvict             8254                       # Transaction distribution
system.membus.trans_dist::ReadExReq              1479                       # Transaction distribution
system.membus.trans_dist::ReadExResp             1479                       # Transaction distribution
system.membus.trans_dist::ReadSharedReq         12238                       # Transaction distribution
system.membus.pkt_count_system.l2cache.mem_side::system.mem_ctrl.port        37029                       # Packet count per connected master and slave (bytes)
system.membus.pkt_count_system.l2cache.mem_side::total        37029                       # Packet count per connected master and slave (bytes)
system.membus.pkt_count::total                  37029                       # Packet count per connected master and slave (bytes)
system.membus.pkt_size_system.l2cache.mem_side::system.mem_ctrl.port       963712                       # Cumulative packet size per connected master and slave (bytes)
system.membus.pkt_size_system.l2cache.mem_side::total       963712                       # Cumulative packet size per connected master and slave (bytes)
system.membus.pkt_size::total                  963712                       # Cumulative packet size per connected master and slave (bytes)
system.membus.snoops                                0                       # Total snoops (count)
system.membus.snoopTraffic                          0                       # Total snoop traffic (bytes)
system.membus.snoop_fanout::samples             13717                       # Request fanout histogram
system.membus.snoop_fanout::mean                    0                       # Request fanout histogram
system.membus.snoop_fanout::stdev                   0                       # Request fanout histogram
system.membus.snoop_fanout::underflows              0      0.00%      0.00% # Request fanout histogram
system.membus.snoop_fanout::0                   13717    100.00%    100.00% # Request fanout histogram
system.membus.snoop_fanout::1                       0      0.00%    100.00% # Request fanout histogram
system.membus.snoop_fanout::overflows               0      0.00%    100.00% # Request fanout histogram
system.membus.snoop_fanout::min_value               0                       # Request fanout histogram
system.membus.snoop_fanout::max_value               0                       # Request fanout histogram
system.membus.snoop_fanout::total               13717                       # Request fanout histogram
system.membus.reqLayer2.occupancy            11503654                       # Layer occupancy (ticks)
system.membus.reqLayer2.utilization               0.8                       # Layer utilization (%)
system.membus.respLayer0.occupancy           29726546                       # Layer occupancy (ticks)
system.membus.respLayer0.utilization              2.0                       # Layer utilization (%)
system.l2bus.pwrStateResidencyTicks::UNDEFINED   1477667200                       # Cumulative time (in ticks) in various power states
system.l2bus.trans_dist::ReadResp               18667                       # Transaction distribution
system.l2bus.trans_dist::WritebackDirty          4168                       # Transaction distribution
system.l2bus.trans_dist::CleanEvict             25139                       # Transaction distribution
system.l2bus.trans_dist::HardPFReq               1062                       # Transaction distribution
system.l2bus.trans_dist::ReadExReq               2244                       # Transaction distribution
system.l2bus.trans_dist::ReadExResp              2244                       # Transaction distribution
system.l2bus.trans_dist::ReadSharedReq          18667                       # Transaction distribution
system.l2bus.pkt_count_system.cpu.icache.mem_side::system.l2cache.cpu_side        10971                       # Packet count per connected master and slave (bytes)
system.l2bus.pkt_count_system.cpu.dcache.mem_side::system.l2cache.cpu_side        50480                       # Packet count per connected master and slave (bytes)
system.l2bus.pkt_count::total                   61451                       # Packet count per connected master and slave (bytes)
system.l2bus.pkt_size_system.cpu.icache.mem_side::system.l2cache.cpu_side       239424                       # Cumulative packet size per connected master and slave (bytes)
system.l2bus.pkt_size_system.cpu.dcache.mem_side::system.l2cache.cpu_side      1279680                       # Cumulative packet size per connected master and slave (bytes)
system.l2bus.pkt_size::total                  1519104                       # Cumulative packet size per connected master and slave (bytes)
system.l2bus.snoops                             10740                       # Total snoops (count)
system.l2bus.snoopTraffic                       85952                       # Total snoop traffic (bytes)
system.l2bus.snoop_fanout::samples              31649                       # Request fanout histogram
system.l2bus.snoop_fanout::mean              0.014218                       # Request fanout histogram
system.l2bus.snoop_fanout::stdev             0.118392                       # Request fanout histogram
system.l2bus.snoop_fanout::underflows               0      0.00%      0.00% # Request fanout histogram
system.l2bus.snoop_fanout::0                    31199     98.58%     98.58% # Request fanout histogram
system.l2bus.snoop_fanout::1                      450      1.42%    100.00% # Request fanout histogram
system.l2bus.snoop_fanout::2                        0      0.00%    100.00% # Request fanout histogram
system.l2bus.snoop_fanout::overflows                0      0.00%    100.00% # Request fanout histogram
system.l2bus.snoop_fanout::min_value                0                       # Request fanout histogram
system.l2bus.snoop_fanout::max_value                1                       # Request fanout histogram
system.l2bus.snoop_fanout::total                31649                       # Request fanout histogram
system.l2bus.respLayer1.occupancy            20601999                       # Layer occupancy (ticks)
system.l2bus.respLayer1.utilization               1.4                       # Layer utilization (%)
system.l2bus.reqLayer0.occupancy             19915828                       # Layer occupancy (ticks)
system.l2bus.reqLayer0.utilization                1.3                       # Layer utilization (%)
system.l2bus.respLayer0.occupancy             4492398                       # Layer occupancy (ticks)
system.l2bus.respLayer0.utilization               0.3                       # Layer utilization (%)
system.clk_domain.clock                           400                       # Clock period in ticks
system.clk_domain.voltage_domain.voltage            1                       # Voltage in Volts
system.cpu.pwrStateResidencyTicks::ON      1477667200                       # Cumulative time (in ticks) in various power states
system.cpu.icache.pwrStateResidencyTicks::UNDEFINED   1477667200                       # Cumulative time (in ticks) in various power states
system.cpu.icache.demand_hits::.cpu.inst       444379                       # number of demand (read+write) hits
system.cpu.icache.demand_hits::total           444379                       # number of demand (read+write) hits
system.cpu.icache.overall_hits::.cpu.inst       444379                       # number of overall hits
system.cpu.icache.overall_hits::total          444379                       # number of overall hits
system.cpu.icache.demand_misses::.cpu.inst         4454                       # number of demand (read+write) misses
system.cpu.icache.demand_misses::total           4454                       # number of demand (read+write) misses
system.cpu.icache.overall_misses::.cpu.inst         4454                       # number of overall misses
system.cpu.icache.overall_misses::total          4454                       # number of overall misses
system.cpu.icache.demand_miss_latency::.cpu.inst    188216800                       # number of demand (read+write) miss cycles
system.cpu.icache.demand_miss_latency::total    188216800                       # number of demand (read+write) miss cycles
system.cpu.icache.overall_miss_latency::.cpu.inst    188216800                       # number of overall miss cycles
system.cpu.icache.overall_miss_latency::total    188216800                       # number of overall miss cycles
system.cpu.icache.demand_accesses::.cpu.inst       448833                       # number of demand (read+write) accesses
system.cpu.icache.demand_accesses::total       448833                       # number of demand (read+write) accesses
system.cpu.icache.overall_accesses::.cpu.inst       448833                       # number of overall (read+write) accesses
system.cpu.icache.overall_accesses::total       448833                       # number of overall (read+write) accesses
system.cpu.icache.demand_miss_rate::.cpu.inst     0.009924                       # miss rate for demand accesses
system.cpu.icache.demand_miss_rate::total     0.009924                       # miss rate for demand accesses
system.cpu.icache.overall_miss_rate::.cpu.inst     0.009924                       # miss rate for overall accesses
system.cpu.icache.overall_miss_rate::total     0.009924                       # miss rate for overall accesses
system.cpu.icache.demand_avg_miss_latency::.cpu.inst 42257.925460                       # average overall miss latency
system.cpu.icache.demand_avg_miss_latency::total 42257.925460                       # average overall miss latency
system.cpu.icache.overall_avg_miss_latency::.cpu.inst 42257.925460                       # average overall miss latency
system.cpu.icache.overall_avg_miss_latency::total 42257.925460                       # average overall miss latency
system.cpu.icache.blocked_cycles::no_mshrs          446                       # number of cycles access was blocked
system.cpu.icache.blocked_cycles::no_targets            0                       # number of cycles access was blocked
system.cpu.icache.blocked::no_mshrs                 4                       # number of cycles access was blocked
system.cpu.icache.blocked::no_targets               0                       # number of cycles access was blocked
system.cpu.icache.avg_blocked_cycles::no_mshrs   111.500000                       # average number of cycles each access was blocked
system.cpu.icache.avg_blocked_cycles::no_targets          nan                       # average number of cycles each access was blocked
system.cpu.icache.demand_mshr_hits::.cpu.inst          711                       # number of demand (read+write) MSHR hits
system.cpu.icache.demand_mshr_hits::total          711                       # number of demand (read+write) MSHR hits
system.cpu.icache.overall_mshr_hits::.cpu.inst          711                       # number of overall MSHR hits
system.cpu.icache.overall_mshr_hits::total          711                       # number of overall MSHR hits
system.cpu.icache.demand_mshr_misses::.cpu.inst         3743                       # number of demand (read+write) MSHR misses
system.cpu.icache.demand_mshr_misses::total         3743                       # number of demand (read+write) MSHR misses
system.cpu.icache.overall_mshr_misses::.cpu.inst         3743                       # number of overall MSHR misses
system.cpu.icache.overall_mshr_misses::total         3743                       # number of overall MSHR misses
system.cpu.icache.demand_mshr_miss_latency::.cpu.inst    152619600                       # number of demand (read+write) MSHR miss cycles
system.cpu.icache.demand_mshr_miss_latency::total    152619600                       # number of demand (read+write) MSHR miss cycles
system.cpu.icache.overall_mshr_miss_latency::.cpu.inst    152619600                       # number of overall MSHR miss cycles
system.cpu.icache.overall_mshr_miss_latency::total    152619600                       # number of overall MSHR miss cycles
system.cpu.icache.demand_mshr_miss_rate::.cpu.inst     0.008339                       # mshr miss rate for demand accesses
system.cpu.icache.demand_mshr_miss_rate::total     0.008339                       # mshr miss rate for demand accesses
system.cpu.icache.overall_mshr_miss_rate::.cpu.inst     0.008339                       # mshr miss rate for overall accesses
system.cpu.icache.overall_mshr_miss_rate::total     0.008339                       # mshr miss rate for overall accesses
system.cpu.icache.demand_avg_mshr_miss_latency::.cpu.inst 40774.672722                       # average overall mshr miss latency
system.cpu.icache.demand_avg_mshr_miss_latency::total 40774.672722                       # average overall mshr miss latency
system.cpu.icache.overall_avg_mshr_miss_latency::.cpu.inst 40774.672722                       # average overall mshr miss latency
system.cpu.icache.overall_avg_mshr_miss_latency::total 40774.672722                       # average overall mshr miss latency
system.cpu.icache.replacements                   3487                       # number of replacements
system.cpu.icache.ReadReq_hits::.cpu.inst       444379                       # number of ReadReq hits
system.cpu.icache.ReadReq_hits::total          444379                       # number of ReadReq hits
system.cpu.icache.ReadReq_misses::.cpu.inst         4454                       # number of ReadReq misses
system.cpu.icache.ReadReq_misses::total          4454                       # number of ReadReq misses
system.cpu.icache.ReadReq_miss_latency::.cpu.inst    188216800                       # number of ReadReq miss cycles
system.cpu.icache.ReadReq_miss_latency::total    188216800                       # number of ReadReq miss cycles
system.cpu.icache.ReadReq_accesses::.cpu.inst       448833                       # number of ReadReq accesses(hits+misses)
system.cpu.icache.ReadReq_accesses::total       448833                       # number of ReadReq accesses(hits+misses)
system.cpu.icache.ReadReq_miss_rate::.cpu.inst     0.009924                       # miss rate for ReadReq accesses
system.cpu.icache.ReadReq_miss_rate::total     0.009924                       # miss rate for ReadReq accesses
system.cpu.icache.ReadReq_avg_miss_latency::.cpu.inst 42257.925460                       # average ReadReq miss latency
system.cpu.icache.ReadReq_avg_miss_latency::total 42257.925460                       # average ReadReq miss latency
system.cpu.icache.ReadReq_mshr_hits::.cpu.inst          711                       # number of ReadReq MSHR hits
system.cpu.icache.ReadReq_mshr_hits::total          711                       # number of ReadReq MSHR hits
system.cpu.icache.ReadReq_mshr_misses::.cpu.inst         3743                       # number of ReadReq MSHR misses
system.cpu.icache.ReadReq_mshr_misses::total         3743                       # number of ReadReq MSHR misses
system.cpu.icache.ReadReq_mshr_miss_latency::.cpu.inst    152619600                       # number of ReadReq MSHR miss cycles
system.cpu.icache.ReadReq_mshr_miss_latency::total    152619600                       # number of ReadReq MSHR miss cycles
system.cpu.icache.ReadReq_mshr_miss_rate::.cpu.inst     0.008339                       # mshr miss rate for ReadReq accesses
system.cpu.icache.ReadReq_mshr_miss_rate::total     0.008339                       # mshr miss rate for ReadReq accesses
system.cpu.icache.ReadReq_avg_mshr_miss_latency::.cpu.inst 40774.672722                       # average ReadReq mshr miss latency
system.cpu.icache.ReadReq_avg_mshr_miss_latency::total 40774.672722                       # average ReadReq mshr miss latency
system.cpu.icache.prefetcher.pwrStateResidencyTicks::UNDEFINED   1477667200                       # Cumulative time (in ticks) in various power states
system.cpu.icache.tags.pwrStateResidencyTicks::UNDEFINED   1477667200                       # Cumulative time (in ticks) in various power states
system.cpu.icache.tags.tagsinuse           254.120977                       # Cycle average of tags in use
system.cpu.icache.tags.total_refs              341759                       # Total number of references to valid blocks.
system.cpu.icache.tags.sampled_refs              3487                       # Sample count of references to valid blocks.
system.cpu.icache.tags.avg_refs             98.009464                       # Average number of references to valid blocks.
system.cpu.icache.tags.warmup_cycle             66400                       # Cycle when the warmup percentage was hit.
system.cpu.icache.tags.occ_blocks::.cpu.inst   254.120977                       # Average occupied blocks per requestor
system.cpu.icache.tags.occ_percent::.cpu.inst     0.992660                       # Average percentage of cache occupancy
system.cpu.icache.tags.occ_percent::total     0.992660                       # Average percentage of cache occupancy
system.cpu.icache.tags.occ_task_id_blocks::1024          256                       # Occupied blocks per task id
system.cpu.icache.tags.age_task_id_blocks_1024::0          103                       # Occupied blocks per task id
system.cpu.icache.tags.age_task_id_blocks_1024::1            3                       # Occupied blocks per task id
system.cpu.icache.tags.age_task_id_blocks_1024::2          148                       # Occupied blocks per task id
system.cpu.icache.tags.age_task_id_blocks_1024::3            2                       # Occupied blocks per task id
system.cpu.icache.tags.occ_task_id_percent::1024            1                       # Percentage of cache occupancy per task id
system.cpu.icache.tags.tag_accesses            901409                       # Number of tag accesses
system.cpu.icache.tags.data_accesses           901409                       # Number of data accesses
system.cpu.dtb.walker.pwrStateResidencyTicks::UNDEFINED   1477667200                       # Cumulative time (in ticks) in various power states
system.cpu.interrupts.clk_domain.clock           6400                       # Clock period in ticks
system.cpu.itb.walker.pwrStateResidencyTicks::UNDEFINED   1477667200                       # Cumulative time (in ticks) in various power states
system.cpu.dcache.pwrStateResidencyTicks::UNDEFINED   1477667200                       # Cumulative time (in ticks) in various power states
system.cpu.dcache.demand_hits::.cpu.data      1110779                       # number of demand (read+write) hits
system.cpu.dcache.demand_hits::total          1110779                       # number of demand (read+write) hits
system.cpu.dcache.overall_hits::.cpu.data      1110779                       # number of overall hits
system.cpu.dcache.overall_hits::total         1110779                       # number of overall hits
system.cpu.dcache.demand_misses::.cpu.data        35050                       # number of demand (read+write) misses
system.cpu.dcache.demand_misses::total          35050                       # number of demand (read+write) misses
system.cpu.dcache.overall_misses::.cpu.data        35050                       # number of overall misses
system.cpu.dcache.overall_misses::total         35050                       # number of overall misses
system.cpu.dcache.demand_miss_latency::.cpu.data   1684502000                       # number of demand (read+write) miss cycles
system.cpu.dcache.demand_miss_latency::total   1684502000                       # number of demand (read+write) miss cycles
system.cpu.dcache.overall_miss_latency::.cpu.data   1684502000                       # number of overall miss cycles
system.cpu.dcache.overall_miss_latency::total   1684502000                       # number of overall miss cycles
system.cpu.dcache.demand_accesses::.cpu.data      1145829                       # number of demand (read+write) accesses
system.cpu.dcache.demand_accesses::total      1145829                       # number of demand (read+write) accesses
system.cpu.dcache.overall_accesses::.cpu.data      1145829                       # number of overall (read+write) accesses
system.cpu.dcache.overall_accesses::total      1145829                       # number of overall (read+write) accesses
system.cpu.dcache.demand_miss_rate::.cpu.data     0.030589                       # miss rate for demand accesses
system.cpu.dcache.demand_miss_rate::total     0.030589                       # miss rate for demand accesses
system.cpu.dcache.overall_miss_rate::.cpu.data     0.030589                       # miss rate for overall accesses
system.cpu.dcache.overall_miss_rate::total     0.030589                       # miss rate for overall accesses
system.cpu.dcache.demand_avg_miss_latency::.cpu.data 48059.971469                       # average overall miss latency
system.cpu.dcache.demand_avg_miss_latency::total 48059.971469                       # average overall miss latency
system.cpu.dcache.overall_avg_miss_latency::.cpu.data 48059.971469                       # average overall miss latency
system.cpu.dcache.overall_avg_miss_latency::total 48059.971469                       # average overall miss latency
system.cpu.dcache.blocked_cycles::no_mshrs        29216                       # number of cycles access was blocked
system.cpu.dcache.blocked_cycles::no_targets          138                       # number of cycles access was blocked
system.cpu.dcache.blocked::no_mshrs               770                       # number of cycles access was blocked
system.cpu.dcache.blocked::no_targets               1                       # number of cycles access was blocked
system.cpu.dcache.avg_blocked_cycles::no_mshrs    37.942857                       # average number of cycles each access was blocked
system.cpu.dcache.avg_blocked_cycles::no_targets          138                       # average number of cycles each access was blocked
system.cpu.dcache.unused_prefetches              1840                       # number of HardPF blocks evicted w/o reference
system.cpu.dcache.writebacks::.writebacks         2827                       # number of writebacks
system.cpu.dcache.writebacks::total              2827                       # number of writebacks
system.cpu.dcache.demand_mshr_hits::.cpu.data        22255                       # number of demand (read+write) MSHR hits
system.cpu.dcache.demand_mshr_hits::total        22255                       # number of demand (read+write) MSHR hits
system.cpu.dcache.overall_mshr_hits::.cpu.data        22255                       # number of overall MSHR hits
system.cpu.dcache.overall_mshr_hits::total        22255                       # number of overall MSHR hits
system.cpu.dcache.demand_mshr_misses::.cpu.data        12795                       # number of demand (read+write) MSHR misses
system.cpu.dcache.demand_mshr_misses::total        12795                       # number of demand (read+write) MSHR misses
system.cpu.dcache.overall_mshr_misses::.cpu.data        12795                       # number of overall MSHR misses
system.cpu.dcache.overall_mshr_misses::.cpu.dcache.prefetcher         4373                       # number of overall MSHR misses
system.cpu.dcache.overall_mshr_misses::total        17168                       # number of overall MSHR misses
system.cpu.dcache.demand_mshr_miss_latency::.cpu.data    586956400                       # number of demand (read+write) MSHR miss cycles
system.cpu.dcache.demand_mshr_miss_latency::total    586956400                       # number of demand (read+write) MSHR miss cycles
system.cpu.dcache.overall_mshr_miss_latency::.cpu.data    586956400                       # number of overall MSHR miss cycles
system.cpu.dcache.overall_mshr_miss_latency::.cpu.dcache.prefetcher    245422101                       # number of overall MSHR miss cycles
system.cpu.dcache.overall_mshr_miss_latency::total    832378501                       # number of overall MSHR miss cycles
system.cpu.dcache.demand_mshr_miss_rate::.cpu.data     0.011167                       # mshr miss rate for demand accesses
system.cpu.dcache.demand_mshr_miss_rate::total     0.011167                       # mshr miss rate for demand accesses
system.cpu.dcache.overall_mshr_miss_rate::.cpu.data     0.011167                       # mshr miss rate for overall accesses
system.cpu.dcache.overall_mshr_miss_rate::.cpu.dcache.prefetcher          inf                       # mshr miss rate for overall accesses
system.cpu.dcache.overall_mshr_miss_rate::total     0.014983                       # mshr miss rate for overall accesses
system.cpu.dcache.demand_avg_mshr_miss_latency::.cpu.data 45873.888238                       # average overall mshr miss latency
system.cpu.dcache.demand_avg_mshr_miss_latency::total 45873.888238                       # average overall mshr miss latency
system.cpu.dcache.overall_avg_mshr_miss_latency::.cpu.data 45873.888238                       # average overall mshr miss latency
system.cpu.dcache.overall_avg_mshr_miss_latency::.cpu.dcache.prefetcher 56122.136062                       # average overall mshr miss latency
system.cpu.dcache.overall_avg_mshr_miss_latency::total 48484.302248                       # average overall mshr miss latency
system.cpu.dcache.replacements                  16144                       # number of replacements
system.cpu.dcache.ReadReq_hits::.cpu.data       766212                       # number of ReadReq hits
system.cpu.dcache.ReadReq_hits::total          766212                       # number of ReadReq hits
system.cpu.dcache.ReadReq_misses::.cpu.data        32771                       # number of ReadReq misses
system.cpu.dcache.ReadReq_misses::total         32771                       # number of ReadReq misses
system.cpu.dcache.ReadReq_miss_latency::.cpu.data   1570210400                       # number of ReadReq miss cycles
system.cpu.dcache.ReadReq_miss_latency::total   1570210400                       # number of ReadReq miss cycles
system.cpu.dcache.ReadReq_accesses::.cpu.data       798983                       # number of ReadReq accesses(hits+misses)
system.cpu.dcache.ReadReq_accesses::total       798983                       # number of ReadReq accesses(hits+misses)
system.cpu.dcache.ReadReq_miss_rate::.cpu.data     0.041016                       # miss rate for ReadReq accesses
system.cpu.dcache.ReadReq_miss_rate::total     0.041016                       # miss rate for ReadReq accesses
system.cpu.dcache.ReadReq_avg_miss_latency::.cpu.data 47914.631839                       # average ReadReq miss latency
system.cpu.dcache.ReadReq_avg_miss_latency::total 47914.631839                       # average ReadReq miss latency
system.cpu.dcache.ReadReq_mshr_hits::.cpu.data        22220                       # number of ReadReq MSHR hits
system.cpu.dcache.ReadReq_mshr_hits::total        22220                       # number of ReadReq MSHR hits
system.cpu.dcache.ReadReq_mshr_misses::.cpu.data        10551                       # number of ReadReq MSHR misses
system.cpu.dcache.ReadReq_mshr_misses::total        10551                       # number of ReadReq MSHR misses
system.cpu.dcache.ReadReq_mshr_miss_latency::.cpu.data    475760000                       # number of ReadReq MSHR miss cycles
system.cpu.dcache.ReadReq_mshr_miss_latency::total    475760000                       # number of ReadReq MSHR miss cycles
system.cpu.dcache.ReadReq_mshr_miss_rate::.cpu.data     0.013206                       # mshr miss rate for ReadReq accesses
system.cpu.dcache.ReadReq_mshr_miss_rate::total     0.013206                       # mshr miss rate for ReadReq accesses
system.cpu.dcache.ReadReq_avg_mshr_miss_latency::.cpu.data 45091.460525                       # average ReadReq mshr miss latency
system.cpu.dcache.ReadReq_avg_mshr_miss_latency::total 45091.460525                       # average ReadReq mshr miss latency
system.cpu.dcache.WriteReq_hits::.cpu.data       344567                       # number of WriteReq hits
system.cpu.dcache.WriteReq_hits::total         344567                       # number of WriteReq hits
system.cpu.dcache.WriteReq_misses::.cpu.data         2279                       # number of WriteReq misses
system.cpu.dcache.WriteReq_misses::total         2279                       # number of WriteReq misses
system.cpu.dcache.WriteReq_miss_latency::.cpu.data    114291600                       # number of WriteReq miss cycles
system.cpu.dcache.WriteReq_miss_latency::total    114291600                       # number of WriteReq miss cycles
system.cpu.dcache.WriteReq_accesses::.cpu.data       346846                       # number of WriteReq accesses(hits+misses)
system.cpu.dcache.WriteReq_accesses::total       346846                       # number of WriteReq accesses(hits+misses)
system.cpu.dcache.WriteReq_miss_rate::.cpu.data     0.006571                       # miss rate for WriteReq accesses
system.cpu.dcache.WriteReq_miss_rate::total     0.006571                       # miss rate for WriteReq accesses
system.cpu.dcache.WriteReq_avg_miss_latency::.cpu.data 50149.890303                       # average WriteReq miss latency
system.cpu.dcache.WriteReq_avg_miss_latency::total 50149.890303                       # average WriteReq miss latency
system.cpu.dcache.WriteReq_mshr_hits::.cpu.data           35                       # number of WriteReq MSHR hits
system.cpu.dcache.WriteReq_mshr_hits::total           35                       # number of WriteReq MSHR hits
system.cpu.dcache.WriteReq_mshr_misses::.cpu.data         2244                       # number of WriteReq MSHR misses
system.cpu.dcache.WriteReq_mshr_misses::total         2244                       # number of WriteReq MSHR misses
system.cpu.dcache.WriteReq_mshr_miss_latency::.cpu.data    111196400                       # number of WriteReq MSHR miss cycles
[...]
system.l2cache.demand_mshr_misses::.cpu.data          142                       # number of demand (read+write) MSHR misses
system.l2cache.demand_mshr_misses::.cpu.dcache.prefetcher           27                       # number of demand (read+write) MSHR misses
system.l2cache.demand_mshr_misses::total          426                       # number of demand (read+write) MSHR misses
system.l2cache.overall_mshr_misses::.cpu.inst          257                       # number of overall MSHR misses
system.l2cache.overall_mshr_misses::.cpu.data          142                       # number of overall MSHR misses
system.l2cache.overall_mshr_misses::.cpu.dcache.prefetcher           27                       # number of overall MSHR misses
system.l2cache.overall_mshr_misses::total          426                       # number of overall MSHR misses
system.l2cache.demand_mshr_miss_latency::.cpu.inst     15568800                       # number of demand (read+write) MSHR miss cycles
system.l2cache.demand_mshr_miss_latency::.cpu.data      8311600                       # number of demand (read+write) MSHR miss cycles
system.l2cache.demand_mshr_miss_latency::.cpu.dcache.prefetcher      1913970                       # number of demand (read+write) MSHR miss cycles
system.l2cache.demand_mshr_miss_latency::total     25794370                       # number of demand (read+write) MSHR miss cycles
system.l2cache.overall_mshr_miss_latency::.cpu.inst     15568800                       # number of overall MSHR miss cycles
system.l2cache.overall_mshr_miss_latency::.cpu.data      8311600                       # number of overall MSHR miss cycles
system.l2cache.overall_mshr_miss_latency::.cpu.dcache.prefetcher      1913970                       # number of overall MSHR miss cycles
system.l2cache.overall_mshr_miss_latency::total     25794370                       # number of overall MSHR miss cycles
system.l2cache.demand_mshr_miss_rate::.cpu.inst     0.423394                       # mshr miss rate for demand accesses
system.l2cache.demand_mshr_miss_rate::.cpu.data     0.439628                       # mshr miss rate for demand accesses
system.l2cache.demand_mshr_miss_rate::.cpu.dcache.prefetcher     0.794118                       # mshr miss rate for demand accesses
system.l2cache.demand_mshr_miss_rate::total     0.441909                       # mshr miss rate for demand accesses
system.l2cache.overall_mshr_miss_rate::.cpu.inst     0.423394                       # mshr miss rate for overall accesses
system.l2cache.overall_mshr_miss_rate::.cpu.data     0.439628                       # mshr miss rate for overall accesses
system.l2cache.overall_mshr_miss_rate::.cpu.dcache.prefetcher     0.794118                       # mshr miss rate for overall accesses
system.l2cache.overall_mshr_miss_rate::total     0.441909                       # mshr miss rate for overall accesses
system.l2cache.demand_avg_mshr_miss_latency::.cpu.inst 60578.988327                       # average overall mshr miss latency
system.l2cache.demand_avg_mshr_miss_latency::.cpu.data 58532.394366                       # average overall mshr miss latency
system.l2cache.demand_avg_mshr_miss_latency::.cpu.dcache.prefetcher 70887.777778                       # average overall mshr miss latency
system.l2cache.demand_avg_mshr_miss_latency::total 60550.164319                       # average overall mshr miss latency
system.l2cache.overall_avg_mshr_miss_latency::.cpu.inst 60578.988327                       # average overall mshr miss latency
system.l2cache.overall_avg_mshr_miss_latency::.cpu.data 58532.394366                       # average overall mshr miss latency
system.l2cache.overall_avg_mshr_miss_latency::.cpu.dcache.prefetcher 70887.777778                       # average overall mshr miss latency
system.l2cache.overall_avg_mshr_miss_latency::total 60550.164319                       # average overall mshr miss latency
system.l2cache.replacements                       437                       # number of replacements
system.l2cache.WritebackDirty_hits::.writebacks          154                       # number of WritebackDirty hits
system.l2cache.WritebackDirty_hits::total          154                       # number of WritebackDirty hits
system.l2cache.WritebackDirty_accesses::.writebacks          154                       # number of WritebackDirty accesses(hits+misses)
system.l2cache.WritebackDirty_accesses::total          154                       # number of WritebackDirty accesses(hits+misses)
system.l2cache.CleanEvict_mshr_misses::.writebacks            8                       # number of CleanEvict MSHR misses
system.l2cache.CleanEvict_mshr_misses::total            8                       # number of CleanEvict MSHR misses
system.l2cache.CleanEvict_mshr_miss_rate::.writebacks          inf                       # mshr miss rate for CleanEvict accesses
system.l2cache.CleanEvict_mshr_miss_rate::total          inf                       # mshr miss rate for CleanEvict accesses
system.l2cache.ReadExReq_hits::.cpu.data           43                       # number of ReadExReq hits
system.l2cache.ReadExReq_hits::total               43                       # number of ReadExReq hits
system.l2cache.ReadExReq_misses::.cpu.data           19                       # number of ReadExReq misses
system.l2cache.ReadExReq_misses::total             19                       # number of ReadExReq misses
system.l2cache.ReadExReq_miss_latency::.cpu.data      1391600                       # number of ReadExReq miss cycles
system.l2cache.ReadExReq_miss_latency::total      1391600                       # number of ReadExReq miss cycles
system.l2cache.ReadExReq_accesses::.cpu.data           62                       # number of ReadExReq accesses(hits+misses)
system.l2cache.ReadExReq_accesses::total           62                       # number of ReadExReq accesses(hits+misses)
system.l2cache.ReadExReq_miss_rate::.cpu.data     0.306452                       # miss rate for ReadExReq accesses
system.l2cache.ReadExReq_miss_rate::total     0.306452                       # miss rate for ReadExReq accesses
system.l2cache.ReadExReq_avg_miss_latency::.cpu.data 73242.105263                       # average ReadExReq miss latency
system.l2cache.ReadExReq_avg_miss_latency::total 73242.105263                       # average ReadExReq miss latency
system.l2cache.ReadExReq_mshr_misses::.cpu.data           19                       # number of ReadExReq MSHR misses
system.l2cache.ReadExReq_mshr_misses::total           19                       # number of ReadExReq MSHR misses
system.l2cache.ReadExReq_mshr_miss_latency::.cpu.data      1239600                       # number of ReadExReq MSHR miss cycles
system.l2cache.ReadExReq_mshr_miss_latency::total      1239600                       # number of ReadExReq MSHR miss cycles
system.l2cache.ReadExReq_mshr_miss_rate::.cpu.data     0.306452                       # mshr miss rate for ReadExReq accesses
system.l2cache.ReadExReq_mshr_miss_rate::total     0.306452                       # mshr miss rate for ReadExReq accesses
system.l2cache.ReadExReq_avg_mshr_miss_latency::.cpu.data 65242.105263                       # average ReadExReq mshr miss latency
system.l2cache.ReadExReq_avg_mshr_miss_latency::total 65242.105263                       # average ReadExReq mshr miss latency
system.l2cache.ReadSharedReq_hits::.cpu.inst          350                       # number of ReadSharedReq hits
system.l2cache.ReadSharedReq_hits::.cpu.data          138                       # number of ReadSharedReq hits
system.l2cache.ReadSharedReq_hits::.cpu.dcache.prefetcher            7                       # number of ReadSharedReq hits
system.l2cache.ReadSharedReq_hits::total          495                       # number of ReadSharedReq hits
system.l2cache.ReadSharedReq_misses::.cpu.inst          257                       # number of ReadSharedReq misses
system.l2cache.ReadSharedReq_misses::.cpu.data          123                       # number of ReadSharedReq misses
system.l2cache.ReadSharedReq_misses::.cpu.dcache.prefetcher           27                       # number of ReadSharedReq misses
system.l2cache.ReadSharedReq_misses::total          407                       # number of ReadSharedReq misses
system.l2cache.ReadSharedReq_miss_latency::.cpu.inst     17616800                       # number of ReadSharedReq miss cycles
system.l2cache.ReadSharedReq_miss_latency::.cpu.data      8056000                       # number of ReadSharedReq miss cycles
system.l2cache.ReadSharedReq_miss_latency::.cpu.dcache.prefetcher      2129970                       # number of ReadSharedReq miss cycles
system.l2cache.ReadSharedReq_miss_latency::total     27802770                       # number of ReadSharedReq miss cycles
system.l2cache.ReadSharedReq_accesses::.cpu.inst          607                       # number of ReadSharedReq accesses(hits+misses)
system.l2cache.ReadSharedReq_accesses::.cpu.data          261                       # number of ReadSharedReq accesses(hits+misses)
system.l2cache.ReadSharedReq_accesses::.cpu.dcache.prefetcher           34                       # number of ReadSharedReq accesses(hits+misses)
system.l2cache.ReadSharedReq_accesses::total          902                       # number of ReadSharedReq accesses(hits+misses)
system.l2cache.ReadSharedReq_miss_rate::.cpu.inst     0.423394                       # miss rate for ReadSharedReq accesses
system.l2cache.ReadSharedReq_miss_rate::.cpu.data     0.471264                       # miss rate for ReadSharedReq accesses
system.l2cache.ReadSharedReq_miss_rate::.cpu.dcache.prefetcher     0.794118                       # miss rate for ReadSharedReq accesses
system.l2cache.ReadSharedReq_miss_rate::total     0.451220                       # miss rate for ReadSharedReq accesses
system.l2cache.ReadSharedReq_avg_miss_latency::.cpu.inst 68547.859922                       # average ReadSharedReq miss latency
system.l2cache.ReadSharedReq_avg_miss_latency::.cpu.data 65495.934959                       # average ReadSharedReq miss latency
system.l2cache.ReadSharedReq_avg_miss_latency::.cpu.dcache.prefetcher 78887.777778                       # average ReadSharedReq miss latency
system.l2cache.ReadSharedReq_avg_miss_latency::total 68311.474201                       # average ReadSharedReq miss latency
system.l2cache.ReadSharedReq_mshr_misses::.cpu.inst          257                       # number of ReadSharedReq MSHR misses
system.l2cache.ReadSharedReq_mshr_misses::.cpu.data          123                       # number of ReadSharedReq MSHR misses
system.l2cache.ReadSharedReq_mshr_misses::.cpu.dcache.prefetcher           27                       # number of ReadSharedReq MSHR misses
system.l2cache.ReadSharedReq_mshr_misses::total          407                       # number of ReadSharedReq MSHR misses
system.l2cache.ReadSharedReq_mshr_miss_latency::.cpu.inst     15568800                       # number of ReadSharedReq MSHR miss cycles
system.l2cache.ReadSharedReq_mshr_miss_latency::.cpu.data      7072000                       # number of ReadSharedReq MSHR miss cycles
system.l2cache.ReadSharedReq_mshr_miss_latency::.cpu.dcache.prefetcher      1913970                       # number of ReadSharedReq MSHR miss cycles
system.l2cache.ReadSharedReq_mshr_miss_latency::total     24554770                       # number of ReadSharedReq MSHR miss cycles
system.l2cache.ReadSharedReq_mshr_miss_rate::.cpu.inst     0.423394                       # mshr miss rate for ReadSharedReq accesses
system.l2cache.ReadSharedReq_mshr_miss_rate::.cpu.data     0.471264                       # mshr miss rate for ReadSharedReq accesses
system.l2cache.ReadSharedReq_mshr_miss_rate::.cpu.dcache.prefetcher     0.794118                       # mshr miss rate for ReadSharedReq accesses
system.l2cache.ReadSharedReq_mshr_miss_rate::total     0.451220                       # mshr miss rate for ReadSharedReq accesses
system.l2cache.ReadSharedReq_avg_mshr_miss_latency::.cpu.inst 60578.988327                       # average ReadSharedReq mshr miss latency
system.l2cache.ReadSharedReq_avg_mshr_miss_latency::.cpu.data 57495.934959                       # average ReadSharedReq mshr miss latency
system.l2cache.ReadSharedReq_avg_mshr_miss_latency::.cpu.dcache.prefetcher 70887.777778                       # average ReadSharedReq mshr miss latency
system.l2cache.ReadSharedReq_avg_mshr_miss_latency::total 60331.130221                       # average ReadSharedReq mshr miss latency
system.l2cache.prefetcher.pwrStateResidencyTicks::UNDEFINED    384705200                       # Cumulative time (in ticks) in various power states
system.l2cache.tags.pwrStateResidencyTicks::UNDEFINED    384705200                       # Cumulative time (in ticks) in various power states
system.l2cache.tags.tagsinuse                    4096                       # Cycle average of tags in use
system.l2cache.tags.total_refs                  15891                       # Total number of references to valid blocks.
system.l2cache.tags.sampled_refs                 4533                       # Sample count of references to valid blocks.
system.l2cache.tags.avg_refs                 3.505625                       # Average number of references to valid blocks.
system.l2cache.tags.warmup_cycle                    0                       # Cycle when the warmup percentage was hit.
system.l2cache.tags.occ_blocks::.writebacks    38.051206                       # Average occupied blocks per requestor
system.l2cache.tags.occ_blocks::.cpu.inst  1118.324544                       # Average occupied blocks per requestor
system.l2cache.tags.occ_blocks::.cpu.data  1897.907409                       # Average occupied blocks per requestor
system.l2cache.tags.occ_blocks::.cpu.dcache.prefetcher   880.825678                       # Average occupied blocks per requestor
system.l2cache.tags.occ_blocks::.l2cache.prefetcher   160.891162                       # Average occupied blocks per requestor
system.l2cache.tags.occ_percent::.writebacks     0.009290                       # Average percentage of cache occupancy
system.l2cache.tags.occ_percent::.cpu.inst     0.273028                       # Average percentage of cache occupancy
system.l2cache.tags.occ_percent::.cpu.data     0.463356                       # Average percentage of cache occupancy
system.l2cache.tags.occ_percent::.cpu.dcache.prefetcher     0.215045                       # Average percentage of cache occupancy
system.l2cache.tags.occ_percent::.l2cache.prefetcher     0.039280                       # Average percentage of cache occupancy
system.l2cache.tags.occ_percent::total              1                       # Average percentage of cache occupancy
system.l2cache.tags.occ_task_id_blocks::1022          961                       # Occupied blocks per task id
system.l2cache.tags.occ_task_id_blocks::1024         3135                       # Occupied blocks per task id
system.l2cache.tags.age_task_id_blocks_1022::0            9                       # Occupied blocks per task id
system.l2cache.tags.age_task_id_blocks_1022::1            1                       # Occupied blocks per task id
system.l2cache.tags.age_task_id_blocks_1022::2           20                       # Occupied blocks per task id
system.l2cache.tags.age_task_id_blocks_1022::3          931                       # Occupied blocks per task id
system.l2cache.tags.age_task_id_blocks_1024::0          165                       # Occupied blocks per task id
system.l2cache.tags.age_task_id_blocks_1024::1          115                       # Occupied blocks per task id
system.l2cache.tags.age_task_id_blocks_1024::2          127                       # Occupied blocks per task id
system.l2cache.tags.age_task_id_blocks_1024::3         2728                       # Occupied blocks per task id
system.l2cache.tags.occ_task_id_percent::1022     0.234619                       # Percentage of cache occupancy per task id
system.l2cache.tags.occ_task_id_percent::1024     0.765381                       # Percentage of cache occupancy per task id
system.l2cache.tags.tag_accesses                15853                       # Number of tag accesses
system.l2cache.tags.data_accesses               15853                       # Number of data accesses
system.mem_ctrl.pwrStateResidencyTicks::UNDEFINED    384705200                       # Cumulative time (in ticks) in various power states
system.mem_ctrl.bytes_read::.cpu.inst           16384                       # Number of bytes read from this memory
system.mem_ctrl.bytes_read::.cpu.data            9088                       # Number of bytes read from this memory
system.mem_ctrl.bytes_read::.cpu.dcache.prefetcher         1728                       # Number of bytes read from this memory
system.mem_ctrl.bytes_read::total               27200                       # Number of bytes read from this memory
system.mem_ctrl.bytes_inst_read::.cpu.inst        16384                       # Number of instructions bytes read from this memory
system.mem_ctrl.bytes_inst_read::total          16384                       # Number of instructions bytes read from this memory
system.mem_ctrl.bytes_written::.writebacks         1728                       # Number of bytes written to this memory
system.mem_ctrl.bytes_written::total             1728                       # Number of bytes written to this memory
system.mem_ctrl.num_reads::.cpu.inst              256                       # Number of read requests responded to by this memory
system.mem_ctrl.num_reads::.cpu.data              142                       # Number of read requests responded to by this memory
system.mem_ctrl.num_reads::.cpu.dcache.prefetcher           27                       # Number of read requests responded to by this memory
system.mem_ctrl.num_reads::total                  425                       # Number of read requests responded to by this memory
system.mem_ctrl.num_writes::.writebacks            27                       # Number of write requests responded to by this memory
system.mem_ctrl.num_writes::total                  27                       # Number of write requests responded to by this memory
system.mem_ctrl.bw_read::.cpu.inst           42588455                       # Total read bandwidth from this memory (bytes/s)
system.mem_ctrl.bw_read::.cpu.data           23623283                       # Total read bandwidth from this memory (bytes/s)
system.mem_ctrl.bw_read::.cpu.dcache.prefetcher      4491751                       # Total read bandwidth from this memory (bytes/s)
system.mem_ctrl.bw_read::total               70703489                       # Total read bandwidth from this memory (bytes/s)
system.mem_ctrl.bw_inst_read::.cpu.inst      42588455                       # Instruction read bandwidth from this memory (bytes/s)
system.mem_ctrl.bw_inst_read::total          42588455                       # Instruction read bandwidth from this memory (bytes/s)
system.mem_ctrl.bw_write::.writebacks         4491751                       # Write bandwidth from this memory (bytes/s)
system.mem_ctrl.bw_write::total               4491751                       # Write bandwidth from this memory (bytes/s)
system.mem_ctrl.bw_total::.writebacks         4491751                       # Total bandwidth to/from this memory (bytes/s)
system.mem_ctrl.bw_total::.cpu.inst          42588455                       # Total bandwidth to/from this memory (bytes/s)
system.mem_ctrl.bw_total::.cpu.data          23623283                       # Total bandwidth to/from this memory (bytes/s)
system.mem_ctrl.bw_total::.cpu.dcache.prefetcher      4491751                       # Total bandwidth to/from this memory (bytes/s)
system.mem_ctrl.bw_total::total              75195240                       # Total bandwidth to/from this memory (bytes/s)

---------- End Simulation Statistics   ----------
