
---------- Begin Simulation Statistics ----------
final_tick                                 1308407200                       # Number of ticks from beginning of simulation (restored from checkpoints and never reset)
host_inst_rate                                 174290                       # Simulator instruction rate (inst/s)
host_mem_usage                                4408880                       # Number of bytes of host memory used
host_op_rate                                   313106                       # Simulator op (including micro ops) rate (op/s)
host_seconds                                    15.52                       # Real time elapsed on the host
host_tick_rate                               84326293                       # Simulator tick rate (ticks/s)
sim_freq                                 1000000000000                       # Frequency of simulated ticks
sim_insts                                     2704273                       # Number of instructions simulated
sim_ops                                       4858150                       # Number of ops (including micro ops) simulated
sim_seconds                                  0.001308                       # Number of seconds simulated
sim_ticks                                  1308407200                       # Number of ticks simulated
system.cpu.branchPred.BTBCorrect                    0                       # Number of correct BTB predictions (this stat may not work properly.
system.cpu.branchPred.BTBHitPct              0.000000                       # BTB Hit Percentage
system.cpu.branchPred.BTBHits                       0                       # Number of BTB hits
system.cpu.branchPred.BTBLookups               577243                       # Number of BTB lookups
system.cpu.branchPred.RASInCorrect                 40                       # Number of incorrect RAS predictions.
system.cpu.branchPred.condIncorrect             28551                       # Number of conditional branches incorrect
system.cpu.branchPred.condPredicted            594296                       # Number of conditional branches predicted
system.cpu.branchPred.indirectHits             317098                       # Number of indirect target hits.
system.cpu.branchPred.indirectLookups          577243                       # Number of indirect predictor lookups.
system.cpu.branchPred.indirectMisses           260145                       # Number of indirect misses.
system.cpu.branchPred.lookups                  653594                       # Number of BP lookups
system.cpu.branchPred.usedRAS                   27716                       # Number of times the RAS was used to get a target.
system.cpu.branchPredindirectMispredicted        16375                       # Number of mispredicted indirect branches.
system.cpu.cc_regfile_reads                   2948780                       # number of cc regfile reads
system.cpu.cc_regfile_writes                  2220239                       # number of cc regfile writes
system.cpu.commit.amos                              0                       # Number of atomic instructions committed
system.cpu.commit.branchMispredicts             28650                       # The number of times a branch was mispredicted
system.cpu.commit.branches                     499576                       # Number of branches committed
system.cpu.commit.bw_lim_events                832105                       # number cycles where commit BW limit reached
system.cpu.commit.commitNonSpecStalls             877                       # The number of times commit has been forced to stall to communicate backwards
system.cpu.commit.commitSquashedInsts          961869                       # The number of squashed insts skipped by commit
system.cpu.commit.committedInsts              2704273                       # Number of instructions committed
system.cpu.commit.committedOps                4858150                       # Number of ops (including micro ops) committed
system.cpu.commit.committed_per_cycle::samples      2840438                       # Number of insts commited each cycle
system.cpu.commit.committed_per_cycle::mean     1.710352                       # Number of insts commited each cycle
system.cpu.commit.committed_per_cycle::stdev     1.749284                       # Number of insts commited each cycle
system.cpu.commit.committed_per_cycle::underflows            0      0.00%      0.00% # Number of insts commited each cycle
system.cpu.commit.committed_per_cycle::0      1267017     44.61%     44.61% # Number of insts commited each cycle
system.cpu.commit.committed_per_cycle::1       243220      8.56%     53.17% # Number of insts commited each cycle
system.cpu.commit.committed_per_cycle::2       207778      7.31%     60.48% # Number of insts commited each cycle
system.cpu.commit.committed_per_cycle::3       290318     10.22%     70.71% # Number of insts commited each cycle
system.cpu.commit.committed_per_cycle::4       832105     29.29%    100.00% # Number of insts commited each cycle
system.cpu.commit.committed_per_cycle::overflows            0      0.00%    100.00% # Number of insts commited each cycle
system.cpu.commit.committed_per_cycle::min_value            0                       # Number of insts commited each cycle
system.cpu.commit.committed_per_cycle::max_value            4                       # Number of insts commited each cycle
system.cpu.commit.committed_per_cycle::total      2840438                       # Number of insts commited each cycle
system.cpu.commit.fp_insts                      75825                       # Number of committed floating point instructions.
system.cpu.commit.function_calls                25863                       # Number of function calls committed.
system.cpu.commit.int_insts                   4802008                       # Number of committed integer instructions.
system.cpu.commit.loads                        710173                       # Number of loads committed
system.cpu.commit.membars                           1                       # Number of memory barriers committed
system.cpu.commit.op_class_0::No_OpClass        20813      0.43%      0.43% # Class of committed instruction
system.cpu.commit.op_class_0::IntAlu          3771416     77.63%     78.06% # Class of committed instruction
system.cpu.commit.op_class_0::IntMult            2054      0.04%     78.10% # Class of committed instruction
system.cpu.commit.op_class_0::IntDiv            37985      0.78%     78.88% # Class of committed instruction
system.cpu.commit.op_class_0::FloatAdd           2996      0.06%     78.94% # Class of committed instruction
system.cpu.commit.op_class_0::FloatCmp              0      0.00%     78.94% # Class of committed instruction
system.cpu.commit.op_class_0::FloatCvt           1376      0.03%     78.97% # Class of committed instruction
system.cpu.commit.op_class_0::FloatMult             0      0.00%     78.97% # Class of committed instruction
system.cpu.commit.op_class_0::FloatMultAcc            0      0.00%     78.97% # Class of committed instruction
system.cpu.commit.op_class_0::FloatDiv              0      0.00%     78.97% # Class of committed instruction
system.cpu.commit.op_class_0::FloatMisc             0      0.00%     78.97% # Class of committed instruction
system.cpu.commit.op_class_0::FloatSqrt             0      0.00%     78.97% # Class of committed instruction
system.cpu.commit.op_class_0::SimdAdd            6346      0.13%     79.10% # Class of committed instruction
system.cpu.commit.op_class_0::SimdAddAcc            0      0.00%     79.10% # Class of committed instruction
system.cpu.commit.op_class_0::SimdAlu           11415      0.23%     79.34% # Class of committed instruction
system.cpu.commit.op_class_0::SimdCmp               0      0.00%     79.34% # Class of committed instruction
system.cpu.commit.op_class_0::SimdCvt           12434      0.26%     79.59% # Class of committed instruction
system.cpu.commit.op_class_0::SimdMisc           6715      0.14%     79.73% # Class of committed instruction
system.cpu.commit.op_class_0::SimdMult              0      0.00%     79.73% # Class of committed instruction
system.cpu.commit.op_class_0::SimdMultAcc            0      0.00%     79.73% # Class of committed instruction
system.cpu.commit.op_class_0::SimdShift          1273      0.03%     79.76% # Class of committed instruction
system.cpu.commit.op_class_0::SimdShiftAcc            0      0.00%     79.76% # Class of committed instruction
system.cpu.commit.op_class_0::SimdDiv               0      0.00%     79.76% # Class of committed instruction
system.cpu.commit.op_class_0::SimdSqrt              0      0.00%     79.76% # Class of committed instruction
system.cpu.commit.op_class_0::SimdFloatAdd            0      0.00%     79.76% # Class of committed instruction
system.cpu.commit.op_class_0::SimdFloatAlu            0      0.00%     79.76% # Class of committed instruction
system.cpu.commit.op_class_0::SimdFloatCmp            0      0.00%     79.76% # Class of committed instruction
system.cpu.commit.op_class_0::SimdFloatCvt            0      0.00%     79.76% # Class of committed instruction
system.cpu.commit.op_class_0::SimdFloatDiv            0      0.00%     79.76% # Class of committed instruction
system.cpu.commit.op_class_0::SimdFloatMisc            0      0.00%     79.76% # Class of committed instruction
system.cpu.commit.op_class_0::SimdFloatMult            0      0.00%     79.76% # Class of committed instruction
system.cpu.commit.op_class_0::SimdFloatMultAcc            0      0.00%     79.76% # Class of committed instruction
system.cpu.commit.op_class_0::SimdFloatSqrt            0      0.00%     79.76% # Class of committed instruction
system.cpu.commit.op_class_0::SimdReduceAdd            0      0.00%     79.76% # Class of committed instruction
system.cpu.commit.op_class_0::SimdReduceAlu            0      0.00%     79.76% # Class of committed instruction
system.cpu.commit.op_class_0::SimdReduceCmp            0      0.00%     79.76% # Class of committed instruction
system.cpu.commit.op_class_0::SimdFloatReduceAdd            0      0.00%     79.76% # Class of committed instruction
system.cpu.commit.op_class_0::SimdFloatReduceCmp            0      0.00%     79.76% # Class of committed instruction
system.cpu.commit.op_class_0::SimdAes               0      0.00%     79.76% # Class of committed instruction
system.cpu.commit.op_class_0::SimdAesMix            0      0.00%     79.76% # Class of committed instruction
system.cpu.commit.op_class_0::SimdSha1Hash            0      0.00%     79.76% # Class of committed instruction
system.cpu.commit.op_class_0::SimdSha1Hash2            0      0.00%     79.76% # Class of committed instruction
system.cpu.commit.op_class_0::SimdSha256Hash            0      0.00%     79.76% # Class of committed instruction
system.cpu.commit.op_class_0::SimdSha256Hash2            0      0.00%     79.76% # Class of committed instruction
system.cpu.commit.op_class_0::SimdShaSigma2            0      0.00%     79.76% # Class of committed instruction
system.cpu.commit.op_class_0::SimdShaSigma3            0      0.00%     79.76% # Class of committed instruction
system.cpu.commit.op_class_0::SimdPredAlu            0      0.00%     79.76% # Class of committed instruction
system.cpu.commit.op_class_0::MemRead          690285     14.21%     93.97% # Class of committed instruction
system.cpu.commit.op_class_0::MemWrite         260655      5.37%     99.33% # Class of committed instruction
system.cpu.commit.op_class_0::FloatMemRead        19888      0.41%     99.74% # Class of committed instruction
system.cpu.commit.op_class_0::FloatMemWrite        12499      0.26%    100.00% # Class of committed instruction
system.cpu.commit.op_class_0::IprAccess             0      0.00%    100.00% # Class of committed instruction
system.cpu.commit.op_class_0::InstPrefetch            0      0.00%    100.00% # Class of committed instruction
system.cpu.commit.op_class_0::total           4858150                       # Class of committed instruction
system.cpu.commit.refs                         983327                       # Number of memory references committed
system.cpu.commit.swp_count                         0                       # Number of s/w prefetches committed
system.cpu.commit.vec_insts                         0                       # Number of committed Vector instructions.
system.cpu.committedInsts                     2704273                       # Number of Instructions Simulated
system.cpu.committedOps                       4858150                       # Number of Ops (including micro ops) Simulated
system.cpu.cpi                               1.209574                       # CPI: Cycles Per Instruction
system.cpu.cpi_total                         1.209574                       # CPI: Total CPI of All Threads
system.cpu.dcache.prefetcher.num_hwpf_issued         8448                       # number of hwpf issued
system.cpu.dcache.prefetcher.pfBufferHit        34466                       # number of redundant prefetches already in prefetch queue
system.cpu.dcache.prefetcher.pfIdentified        50355                       # number of prefetch candidates identified
system.cpu.dcache.prefetcher.pfInCache              0                       # number of redundant prefetches already in cache/mshr dropped
system.cpu.dcache.prefetcher.pfRemovedFull            0                       # number of prefetches dropped due to prefetch queue size
system.cpu.dcache.prefetcher.pfSpanPage          4701                       # number of prefetches that crossed the page
system.cpu.decode.BlockedCycles               1039250                       # Number of cycles decode is blocked
system.cpu.decode.DecodedInsts                6065527                       # Number of instructions handled by decode
system.cpu.decode.IdleCycles                   419005                       # Number of cycles decode is idle
system.cpu.decode.RunCycles                   1525251                       # Number of cycles decode is running
system.cpu.decode.SquashCycles                  28716                       # Number of cycles decode is squashing
system.cpu.decode.UnblockCycles                 90996                       # Number of cycles decode is unblocking
system.cpu.dtb.rdAccesses                      797361                       # TLB accesses on read requests
system.cpu.dtb.rdMisses                          1885                       # TLB misses on read requests
system.cpu.dtb.wrAccesses                      294930                       # TLB accesses on write requests
system.cpu.dtb.wrMisses                           160                       # TLB misses on write requests
system.cpu.fetch.Branches                      653594                       # Number of branches that fetch encountered
system.cpu.fetch.CacheLines                    359550                       # Number of cache lines fetched
system.cpu.fetch.Cycles                       2615331                       # Number of cycles fetch has run and was not squashing or blocked
system.cpu.fetch.IcacheSquashes                  7419                       # Number of outstanding Icache misses that were squashed
system.cpu.fetch.IcacheWaitRetryStallCycles           10                       # Number of stall cycles due to full MSHR
system.cpu.fetch.Insts                        3523669                       # Number of instructions fetch has processed
system.cpu.fetch.MiscStallCycles                  156                       # Number of cycles fetch has spent waiting on interrupts, or bad addresses, or out of MSHRs
system.cpu.fetch.PendingQuiesceStallCycles            8                       # Number of stall cycles due to pending quiesce instructions
system.cpu.fetch.PendingTrapStallCycles           711                       # Number of stall cycles due to pending traps
system.cpu.fetch.SquashCycles                   57432                       # Number of cycles fetch has spent squashing
system.cpu.fetch.branchRate                  0.199814                       # Number of branch fetches per cycle
system.cpu.fetch.icacheStallCycles             458286                       # Number of cycles fetch is stalled on an Icache miss
system.cpu.fetch.predictedBranches             344814                       # Number of branches that fetch has predicted taken
system.cpu.fetch.rate                        1.077239                       # Number of inst fetches per cycle
system.cpu.fetch.rateDist::samples            3103218                       # Number of instructions fetched each cycle (Total)
system.cpu.fetch.rateDist::mean              2.046267                       # Number of instructions fetched each cycle (Total)
system.cpu.fetch.rateDist::stdev             1.913930                       # Number of instructions fetched each cycle (Total)
system.cpu.fetch.rateDist::underflows               0      0.00%      0.00% # Number of instructions fetched each cycle (Total)
system.cpu.fetch.rateDist::0                  1362022     43.89%     43.89% # Number of instructions fetched each cycle (Total)
system.cpu.fetch.rateDist::1                   105105      3.39%     47.28% # Number of instructions fetched each cycle (Total)
system.cpu.fetch.rateDist::2                    87468      2.82%     50.10% # Number of instructions fetched each cycle (Total)
system.cpu.fetch.rateDist::3                   124519      4.01%     54.11% # Number of instructions fetched each cycle (Total)
system.cpu.fetch.rateDist::4                  1424104     45.89%    100.00% # Number of instructions fetched each cycle (Total)
system.cpu.fetch.rateDist::overflows                0      0.00%    100.00% # Number of instructions fetched each cycle (Total)
system.cpu.fetch.rateDist::min_value                0                       # Number of instructions fetched each cycle (Total)
system.cpu.fetch.rateDist::max_value                4                       # Number of instructions fetched each cycle (Total)
system.cpu.fetch.rateDist::total              3103218                       # Number of instructions fetched each cycle (Total)
system.cpu.fp_regfile_reads                    122389                       # number of floating regfile reads
system.cpu.fp_regfile_writes                    67487                       # number of floating regfile writes
system.cpu.fuPool.fu_ticks_busy::IntALU(0)    282372800                       # Total ticks fu was busy
system.cpu.fuPool.fu_ticks_busy::IntALU(1)    282372800                       # Total ticks fu was busy
system.cpu.fuPool.fu_ticks_busy::IntALU(2)    282372400                       # Total ticks fu was busy
system.cpu.fuPool.fu_ticks_busy::IntALU(3)    282372400                       # Total ticks fu was busy
system.cpu.fuPool.fu_ticks_busy::IntALU(4)    282372400                       # Total ticks fu was busy
system.cpu.fuPool.fu_ticks_busy::IntALU(5)    282372400                       # Total ticks fu was busy
system.cpu.fuPool.fu_ticks_busy::IntMultDiv(0)      8828400                       # Total ticks fu was busy
system.cpu.fuPool.fu_ticks_busy::IntMultDiv(1)      8828000                       # Total ticks fu was busy
system.cpu.fuPool.fu_ticks_busy::FP_ALU(0)       614000                       # Total ticks fu was busy
system.cpu.fuPool.fu_ticks_busy::FP_ALU(1)       614000                       # Total ticks fu was busy
system.cpu.fuPool.fu_ticks_busy::FP_ALU(2)       613200                       # Total ticks fu was busy
system.cpu.fuPool.fu_ticks_busy::FP_ALU(3)       613200                       # Total ticks fu was busy
system.cpu.fuPool.fu_ticks_busy::FP_MultDiv(0)            0                       # Total ticks fu was busy
system.cpu.fuPool.fu_ticks_busy::FP_MultDiv(1)            0                       # Total ticks fu was busy
system.cpu.fuPool.fu_ticks_busy::SIMD_Unit(0)      4531600                       # Total ticks fu was busy
system.cpu.fuPool.fu_ticks_busy::SIMD_Unit(1)      4584400                       # Total ticks fu was busy
system.cpu.fuPool.fu_ticks_busy::SIMD_Unit(2)      4622800                       # Total ticks fu was busy
system.cpu.fuPool.fu_ticks_busy::SIMD_Unit(3)      4562800                       # Total ticks fu was busy
system.cpu.fuPool.fu_ticks_busy::PredALU(0)            0                       # Total ticks fu was busy
system.cpu.fuPool.fu_ticks_busy::RdWrPort(0)    110973200                       # Total ticks fu was busy
system.cpu.fuPool.fu_ticks_busy::RdWrPort(1)    110989200                       # Total ticks fu was busy
system.cpu.fuPool.fu_ticks_busy::RdWrPort(2)    110985200                       # Total ticks fu was busy
system.cpu.fuPool.fu_ticks_busy::RdWrPort(3)    111025200                       # Total ticks fu was busy
system.cpu.fuPool.fu_ticks_busy::IprPort(0)            0                       # Total ticks fu was busy
system.cpu.fuPool.fu_ticks_busy::total     2176620400                       # Total ticks fu was busy
system.cpu.icache.prefetcher.num_hwpf_issued            0                       # number of hwpf issued
system.cpu.icache.prefetcher.pfBufferHit            0                       # number of redundant prefetches already in prefetch queue
system.cpu.icache.prefetcher.pfIdentified            0                       # number of prefetch candidates identified
system.cpu.icache.prefetcher.pfInCache              0                       # number of redundant prefetches already in cache/mshr dropped
system.cpu.icache.prefetcher.pfRemovedFull            0                       # number of prefetches dropped due to prefetch queue size
system.cpu.icache.prefetcher.pfSpanPage             0                       # number of prefetches that crossed the page
system.cpu.idleCycles                          167801                       # Total number of cycles that the CPU has spent unscheduled due to idling
system.cpu.iew.branchMispredicts                33165                       # Number of branch mispredicts detected at execute
system.cpu.iew.exec_branches                   530863                       # Number of branches executed
system.cpu.iew.exec_nop                             0                       # number of nop insts executed
system.cpu.iew.exec_rate                     1.658268                       # Inst execution rate
system.cpu.iew.exec_refs                      1094015                       # number of memory reference insts executed
system.cpu.iew.exec_stores                     294915                       # Number of stores executed
system.cpu.iew.exec_swp                             0                       # number of swp insts executed
system.cpu.iew.iewBlockCycles                  712298                       # Number of cycles IEW is blocking
system.cpu.iew.iewDispLoadInsts                838269                       # Number of dispatched load instructions
system.cpu.iew.iewDispNonSpecInsts               2402                       # Number of dispatched non-speculative instructions
system.cpu.iew.iewDispSquashedInsts               566                       # Number of squashed instructions skipped by dispatch
system.cpu.iew.iewDispStoreInsts               312294                       # Number of dispatched store instructions
system.cpu.iew.iewDispatchedInsts             5819972                       # Number of instructions dispatched to IQ
system.cpu.iew.iewExecLoadInsts                799100                       # Number of load instructions executed
system.cpu.iew.iewExecSquashedInsts             44101                       # Number of squashed instructions skipped in execute
system.cpu.iew.iewExecutedInsts               5424227                       # Number of executed instructions
system.cpu.iew.iewIQFullEvents                   3399                       # Number of times the IQ has become full, causing a stall
system.cpu.iew.iewIdleCycles                        0                       # Number of cycles IEW is idle
system.cpu.iew.iewLSQFullEvents                  8998                       # Number of times the LSQ has become full, causing a stall
system.cpu.iew.iewSquashCycles                  28716                       # Number of cycles IEW is squashing
system.cpu.iew.iewUnblockCycles                 15312                       # Number of cycles IEW is unblocking
system.cpu.iew.lsq.thread0.blockedLoads             0                       # Number of blocked loads due to partial load-store forwarding
system.cpu.iew.lsq.thread0.cacheBlocked           596                       # Number of times an access to memory failed due to the cache being blocked
system.cpu.iew.lsq.thread0.forwLoads            45356                       # Number of loads that had data forwarded from stores
system.cpu.iew.lsq.thread0.ignoredResponses          378                       # Number of memory responses ignored because the instruction is squashed
system.cpu.iew.lsq.thread0.invAddrLoads             0                       # Number of loads ignored due to an invalid address
system.cpu.iew.lsq.thread0.invAddrSwpfs             0                       # Number of software prefetches ignored due to an invalid address
system.cpu.iew.lsq.thread0.memOrderViolation           76                       # Number of memory ordering violations
system.cpu.iew.lsq.thread0.rescheduledLoads            0                       # Number of loads that were rescheduled
system.cpu.iew.lsq.thread0.squashedLoads       128094                       # Number of loads squashed
system.cpu.iew.lsq.thread0.squashedStores        39139                       # Number of stores squashed
system.cpu.iew.memOrderViolationEvents             76                       # Number of memory order violations
system.cpu.iew.predictedNotTakenIncorrect        24848                       # Number of branches that were predicted not taken incorrectly
system.cpu.iew.predictedTakenIncorrect           8317                       # Number of branches that were predicted taken incorrectly
system.cpu.iew.wb_consumers                   7055080                       # num instructions consuming a value
system.cpu.iew.wb_count                       5399245                       # cumulative count of insts written-back
system.cpu.iew.wb_fanout                     0.585697                       # average fanout of values written-back
system.cpu.iew.wb_producers                   4132138                       # num instructions producing a value
system.cpu.iew.wb_rate                       1.650631                       # insts written-back per cycle
system.cpu.iew.wb_sent                        5407445                       # cumulative count of insts sent to commit
system.cpu.int_regfile_reads                  8405068                       # number of integer regfile reads
system.cpu.int_regfile_writes                 4584980                       # number of integer regfile writes
system.cpu.ipc                               0.826737                       # IPC: Instructions Per Cycle
system.cpu.ipc_total                         0.826737                       # IPC: Total IPC of All Threads
system.cpu.iq.FU_type_0::No_OpClass             26777      0.49%      0.49% # Type of FU issued
system.cpu.iq.FU_type_0::IntAlu               4235589     77.46%     77.95% # Type of FU issued
system.cpu.iq.FU_type_0::IntMult                 2079      0.04%     77.98% # Type of FU issued
system.cpu.iq.FU_type_0::IntDiv                 42062      0.77%     78.75% # Type of FU issued
system.cpu.iq.FU_type_0::FloatAdd                4662      0.09%     78.84% # Type of FU issued
system.cpu.iq.FU_type_0::FloatCmp                   0      0.00%     78.84% # Type of FU issued
system.cpu.iq.FU_type_0::FloatCvt                1474      0.03%     78.87% # Type of FU issued
system.cpu.iq.FU_type_0::FloatMult                  0      0.00%     78.87% # Type of FU issued
system.cpu.iq.FU_type_0::FloatMultAcc               0      0.00%     78.87% # Type of FU issued
system.cpu.iq.FU_type_0::FloatDiv                   0      0.00%     78.87% # Type of FU issued
system.cpu.iq.FU_type_0::FloatMisc                  0      0.00%     78.87% # Type of FU issued
system.cpu.iq.FU_type_0::FloatSqrt                  0      0.00%     78.87% # Type of FU issued
system.cpu.iq.FU_type_0::SimdAdd                 6921      0.13%     78.99% # Type of FU issued
system.cpu.iq.FU_type_0::SimdAddAcc                 0      0.00%     78.99% # Type of FU issued
system.cpu.iq.FU_type_0::SimdAlu                15119      0.28%     79.27% # Type of FU issued
system.cpu.iq.FU_type_0::SimdCmp                    0      0.00%     79.27% # Type of FU issued
system.cpu.iq.FU_type_0::SimdCvt                14052      0.26%     79.53% # Type of FU issued
system.cpu.iq.FU_type_0::SimdMisc                7236      0.13%     79.66% # Type of FU issued
system.cpu.iq.FU_type_0::SimdMult                   0      0.00%     79.66% # Type of FU issued
system.cpu.iq.FU_type_0::SimdMultAcc                0      0.00%     79.66% # Type of FU issued
system.cpu.iq.FU_type_0::SimdShift               2426      0.04%     79.70% # Type of FU issued
system.cpu.iq.FU_type_0::SimdShiftAcc               0      0.00%     79.70% # Type of FU issued
system.cpu.iq.FU_type_0::SimdDiv                    0      0.00%     79.70% # Type of FU issued
system.cpu.iq.FU_type_0::SimdSqrt                   0      0.00%     79.70% # Type of FU issued
system.cpu.iq.FU_type_0::SimdFloatAdd               0      0.00%     79.70% # Type of FU issued
system.cpu.iq.FU_type_0::SimdFloatAlu               0      0.00%     79.70% # Type of FU issued
system.cpu.iq.FU_type_0::SimdFloatCmp               0      0.00%     79.70% # Type of FU issued
system.cpu.iq.FU_type_0::SimdFloatCvt               0      0.00%     79.70% # Type of FU issued
system.cpu.iq.FU_type_0::SimdFloatDiv               0      0.00%     79.70% # Type of FU issued
system.cpu.iq.FU_type_0::SimdFloatMisc              0      0.00%     79.70% # Type of FU issued
system.cpu.iq.FU_type_0::SimdFloatMult              0      0.00%     79.70% # Type of FU issued
system.cpu.iq.FU_type_0::SimdFloatMultAcc            0      0.00%     79.70% # Type of FU issued
system.cpu.iq.FU_type_0::SimdFloatSqrt              0      0.00%     79.70% # Type of FU issued
system.cpu.iq.FU_type_0::SimdReduceAdd              0      0.00%     79.70% # Type of FU issued
system.cpu.iq.FU_type_0::SimdReduceAlu              0      0.00%     79.70% # Type of FU issued
system.cpu.iq.FU_type_0::SimdReduceCmp              0      0.00%     79.70% # Type of FU issued
system.cpu.iq.FU_type_0::SimdFloatReduceAdd            0      0.00%     79.70% # Type of FU issued
system.cpu.iq.FU_type_0::SimdFloatReduceCmp            0      0.00%     79.70% # Type of FU issued
system.cpu.iq.FU_type_0::SimdAes                    0      0.00%     79.70% # Type of FU issued
system.cpu.iq.FU_type_0::SimdAesMix                 0      0.00%     79.70% # Type of FU issued
system.cpu.iq.FU_type_0::SimdSha1Hash               0      0.00%     79.70% # Type of FU issued
system.cpu.iq.FU_type_0::SimdSha1Hash2              0      0.00%     79.70% # Type of FU issued
system.cpu.iq.FU_type_0::SimdSha256Hash             0      0.00%     79.70% # Type of FU issued
system.cpu.iq.FU_type_0::SimdSha256Hash2            0      0.00%     79.70% # Type of FU issued
system.cpu.iq.FU_type_0::SimdShaSigma2              0      0.00%     79.70% # Type of FU issued
system.cpu.iq.FU_type_0::SimdShaSigma3              0      0.00%     79.70% # Type of FU issued
system.cpu.iq.FU_type_0::SimdPredAlu                0      0.00%     79.70% # Type of FU issued
system.cpu.iq.FU_type_0::MemRead               785003     14.36%     94.06% # Type of FU issued
system.cpu.iq.FU_type_0::MemWrite              285300      5.22%     99.28% # Type of FU issued
system.cpu.iq.FU_type_0::FloatMemRead           25889      0.47%     99.75% # Type of FU issued
system.cpu.iq.FU_type_0::FloatMemWrite          13742      0.25%    100.00% # Type of FU issued
system.cpu.iq.FU_type_0::IprAccess                  0      0.00%    100.00% # Type of FU issued
system.cpu.iq.FU_type_0::InstPrefetch               0      0.00%    100.00% # Type of FU issued
system.cpu.iq.FU_type_0::total                5468331                       # Type of FU issued
system.cpu.iq.fp_alu_accesses                   92591                       # Number of floating point alu accesses
system.cpu.iq.fp_inst_queue_reads              186521                       # Number of floating instruction queue reads
system.cpu.iq.fp_inst_queue_wakeup_accesses        88870                       # Number of floating instruction queue wakeup accesses
system.cpu.iq.fp_inst_queue_writes             134871                       # Number of floating instruction queue writes
system.cpu.iq.fu_busy_cnt                           0                       # FU busy when requested
system.cpu.iq.fu_busy_rate                          0                       # FU busy rate (busy events/executed inst)
system.cpu.iq.fu_full::No_OpClass                   0                       # attempts to use FU when none available
system.cpu.iq.fu_full::IntAlu                       0                       # attempts to use FU when none available
system.cpu.iq.fu_full::IntMult                      0                       # attempts to use FU when none available
system.cpu.iq.fu_full::IntDiv                       0                       # attempts to use FU when none available
system.cpu.iq.fu_full::FloatAdd                     0                       # attempts to use FU when none available
system.cpu.iq.fu_full::FloatCmp                     0                       # attempts to use FU when none available
system.cpu.iq.fu_full::FloatCvt                     0                       # attempts to use FU when none available
system.cpu.iq.fu_full::FloatMult                    0                       # attempts to use FU when none available
system.cpu.iq.fu_full::FloatMultAcc                 0                       # attempts to use FU when none available
system.cpu.iq.fu_full::FloatDiv                     0                       # attempts to use FU when none available
system.cpu.iq.fu_full::FloatMisc                    0                       # attempts to use FU when none available
system.cpu.iq.fu_full::FloatSqrt                    0                       # attempts to use FU when none available
system.cpu.iq.fu_full::SimdAdd                      0                       # attempts to use FU when none available
system.cpu.iq.fu_full::SimdAddAcc                   0                       # attempts to use FU when none available
system.cpu.iq.fu_full::SimdAlu                      0                       # attempts to use FU when none available
system.cpu.iq.fu_full::SimdCmp                      0                       # attempts to use FU when none available
system.cpu.iq.fu_full::SimdCvt                      0                       # attempts to use FU when none available
system.cpu.iq.fu_full::SimdMisc                     0                       # attempts to use FU when none available
system.cpu.iq.fu_full::SimdMult                     0                       # attempts to use FU when none available
system.cpu.iq.fu_full::SimdMultAcc                  0                       # attempts to use FU when none available
system.cpu.iq.fu_full::SimdShift                    0                       # attempts to use FU when none available
system.cpu.iq.fu_full::SimdShiftAcc                 0                       # attempts to use FU when none available
system.cpu.iq.fu_full::SimdDiv                      0                       # attempts to use FU when none available
system.cpu.iq.fu_full::SimdSqrt                     0                       # attempts to use FU when none available
system.cpu.iq.fu_full::SimdFloatAdd                 0                       # attempts to use FU when none available
system.cpu.iq.fu_full::SimdFloatAlu                 0                       # attempts to use FU when none available
system.cpu.iq.fu_full::SimdFloatCmp                 0                       # attempts to use FU when none available
system.cpu.iq.fu_full::SimdFloatCvt                 0                       # attempts to use FU when none available
system.cpu.iq.fu_full::SimdFloatDiv                 0                       # attempts to use FU when none available
system.cpu.iq.fu_full::SimdFloatMisc                0                       # attempts to use FU when none available
system.cpu.iq.fu_full::SimdFloatMult                0                       # attempts to use FU when none available
system.cpu.iq.fu_full::SimdFloatMultAcc             0                       # attempts to use FU when none available
system.cpu.iq.fu_full::SimdFloatSqrt                0                       # attempts to use FU when none available
system.cpu.iq.fu_full::SimdReduceAdd                0                       # attempts to use FU when none available
system.cpu.iq.fu_full::SimdReduceAlu                0                       # attempts to use FU when none available
system.cpu.iq.fu_full::SimdReduceCmp                0                       # attempts to use FU when none available
system.cpu.iq.fu_full::SimdFloatReduceAdd            0                       # attempts to use FU when none available
system.cpu.iq.fu_full::SimdFloatReduceCmp            0                       # attempts to use FU when none available
system.cpu.iq.fu_full::SimdAes                      0                       # attempts to use FU when none available
system.cpu.iq.fu_full::SimdAesMix                   0                       # attempts to use FU when none available
system.cpu.iq.fu_full::SimdSha1Hash                 0                       # attempts to use FU when none available
system.cpu.iq.fu_full::SimdSha1Hash2                0                       # attempts to use FU when none available
system.cpu.iq.fu_full::SimdSha256Hash               0                       # attempts to use FU when none available
system.cpu.iq.fu_full::SimdSha256Hash2              0                       # attempts to use FU when none available
system.cpu.iq.fu_full::SimdShaSigma2                0                       # attempts to use FU when none available
system.cpu.iq.fu_full::SimdShaSigma3                0                       # attempts to use FU when none available
system.cpu.iq.fu_full::SimdPredAlu                  0                       # attempts to use FU when none available
system.cpu.iq.fu_full::MemRead                      0                       # attempts to use FU when none available
system.cpu.iq.fu_full::MemWrite                     0                       # attempts to use FU when none available
system.cpu.iq.fu_full::FloatMemRead                 0                       # attempts to use FU when none available
system.cpu.iq.fu_full::FloatMemWrite                0                       # attempts to use FU when none available
system.cpu.iq.fu_full::IprAccess                    0                       # attempts to use FU when none available
system.cpu.iq.fu_full::InstPrefetch                 0                       # attempts to use FU when none available
system.cpu.iq.int_alu_accesses                5348963                       # Number of integer alu accesses
system.cpu.iq.int_inst_queue_reads           13871583                       # Number of integer instruction queue reads
system.cpu.iq.int_inst_queue_wakeup_accesses      5310375                       # Number of integer instruction queue wakeup accesses
system.cpu.iq.int_inst_queue_writes           6646988                       # Number of integer instruction queue writes
system.cpu.iq.iqInstsAdded                    5814752                       # Number of instructions added to the IQ (excludes non-spec)
system.cpu.iq.iqInstsIssued                   5468331                       # Number of instructions issued
system.cpu.iq.iqNonSpecInstsAdded                5220                       # Number of non-speculative instructions added to the IQ
system.cpu.iq.iqSquashedInstsExamined          961811                       # Number of squashed instructions iterated over during squash; mainly for profiling
system.cpu.iq.iqSquashedInstsIssued             18227                       # Number of squashed instructions issued
system.cpu.iq.iqSquashedNonSpecRemoved           4343                       # Number of squashed non-spec instructions that were removed
system.cpu.iq.iqSquashedOperandsExamined      1447870                       # Number of squashed operands that are examined and possibly removed from graph
system.cpu.iq.issued_per_cycle::samples       3103218                       # Number of insts issued each cycle
system.cpu.iq.issued_per_cycle::mean         1.762149                       # Number of insts issued each cycle
system.cpu.iq.issued_per_cycle::stdev        1.659792                       # Number of insts issued each cycle
system.cpu.iq.issued_per_cycle::underflows            0      0.00%      0.00% # Number of insts issued each cycle
system.cpu.iq.issued_per_cycle::0             1240958     39.99%     39.99% # Number of insts issued each cycle
system.cpu.iq.issued_per_cycle::1              242325      7.81%     47.80% # Number of insts issued each cycle
system.cpu.iq.issued_per_cycle::2              399972     12.89%     60.69% # Number of insts issued each cycle
system.cpu.iq.issued_per_cycle::3              453790     14.62%     75.31% # Number of insts issued each cycle
system.cpu.iq.issued_per_cycle::4              766173     24.69%    100.00% # Number of insts issued each cycle
system.cpu.iq.issued_per_cycle::overflows            0      0.00%    100.00% # Number of insts issued each cycle
system.cpu.iq.issued_per_cycle::min_value            0                       # Number of insts issued each cycle
system.cpu.iq.issued_per_cycle::max_value            4                       # Number of insts issued each cycle
system.cpu.iq.issued_per_cycle::total         3103218                       # Number of insts issued each cycle
system.cpu.iq.rate                           1.671752                       # Inst issue rate
system.cpu.iq.vec_alu_accesses                      0                       # Number of vector alu accesses
system.cpu.iq.vec_inst_queue_reads                  0                       # Number of vector instruction queue reads
system.cpu.iq.vec_inst_queue_wakeup_accesses            0                       # Number of vector instruction queue wakeup accesses
system.cpu.iq.vec_inst_queue_writes                 0                       # Number of vector instruction queue writes
system.cpu.itb.rdAccesses                           0                       # TLB accesses on read requests
system.cpu.itb.rdMisses                             0                       # TLB misses on read requests
system.cpu.itb.wrAccesses                      359669                       # TLB accesses on write requests
system.cpu.itb.wrMisses                           381                       # TLB misses on write requests
system.cpu.memDep0.conflictingLoads             12187                       # Number of conflicting loads.
system.cpu.memDep0.conflictingStores             6317                       # Number of conflicting stores.
system.cpu.memDep0.insertedLoads               838269                       # Number of loads inserted to the mem dependence unit.
system.cpu.memDep0.insertedStores              312294                       # Number of stores inserted to the mem dependence unit.
system.cpu.misc_regfile_reads                 2190151                       # number of misc regfile reads
system.cpu.misc_regfile_writes                    774                       # number of misc regfile writes
system.cpu.numCycles                          3271019                       # number of cpu cycles simulated
system.cpu.numWorkItemsCompleted                    0                       # number of work items this cpu completed
system.cpu.numWorkItemsStarted                      0                       # number of work items this cpu started
system.cpu.process.numSyscalls                    102                       # Number of system calls
system.cpu.rename.BlockCycles                  854391                       # Number of cycles rename is blocking
system.cpu.rename.CommittedMaps               6214901                       # Number of HB maps that are committed
system.cpu.rename.FullRegisterEvents               28                       # Number of times there has been no free registers
system.cpu.rename.IQFullEvents                  43912                       # Number of times rename has blocked due to IQ full
system.cpu.rename.IdleCycles                   470919                       # Number of cycles rename is idle
system.cpu.rename.LQFullEvents                  14737                       # Number of times rename has blocked due to LQ full
system.cpu.rename.ROBFullEvents                  4781                       # Number of times rename has blocked due to ROB full
system.cpu.rename.RenameLookups              15480492                       # Number of register rename lookups that rename has made
system.cpu.rename.RenamedInsts                5979838                       # Number of instructions processed by rename
system.cpu.rename.RenamedOperands             7695608                       # Number of destination operands rename has renamed
system.cpu.rename.RunCycles                   1556018                       # Number of cycles rename is running
system.cpu.rename.SQFullEvents                  75140                       # Number of times rename has blocked due to SQ full
system.cpu.rename.SquashCycles                  28716                       # Number of cycles rename is squashing
system.cpu.rename.UnblockCycles                170184                       # Number of cycles rename is unblocking
system.cpu.rename.UndoneMaps                  1480684                       # Number of HB maps that are undone due to squashing
system.cpu.rename.fp_rename_lookups            158869                       # Number of floating rename lookups
system.cpu.rename.int_rename_lookups          9452872                       # Number of integer rename lookups
system.cpu.rename.serializeStallCycles          22990                       # count of cycles rename stalled for serializing inst
system.cpu.rename.serializingInsts               1028                       # count of serializing insts renamed
system.cpu.rename.skidInsts                    200683                       # count of insts added to the skid buffer
system.cpu.rename.tempSerializingInsts           1094                       # count of temporary serializing insts renamed
system.cpu.rob.rob_reads                      7828352                       # The number of ROB reads
system.cpu.rob.rob_writes                    11903775                       # The number of ROB writes
system.cpu.timesIdled                            1780                       # Number of times that the entire CPU went into an idle state and unscheduled itself
system.l2bus.snoop_filter.hit_multi_requests           26                       # Number of requests hitting in the snoop filter with multiple (>1) holders of the requested data.
system.l2bus.snoop_filter.hit_multi_snoops            0                       # Number of snoops hitting in the snoop filter with multiple (>1) holders of the requested data.
system.l2bus.snoop_filter.hit_single_requests        19056                       # Number of requests hitting in the snoop filter with a single holder of the requested data.
system.l2bus.snoop_filter.hit_single_snoops          434                       # Number of snoops hitting in the snoop filter with a single holder of the requested data.
system.l2bus.snoop_filter.tot_requests          39368                       # Total number of requests made to the snoop filter.
system.l2bus.snoop_filter.tot_snoops              434                       # Total number of snoops made to the snoop filter.
system.l2cache.prefetcher.num_hwpf_issued          662                       # number of hwpf issued
system.l2cache.prefetcher.pfBufferHit               0                       # number of redundant prefetches already in prefetch queue
system.l2cache.prefetcher.pfIdentified            662                       # number of prefetch candidates identified
system.l2cache.prefetcher.pfInCache                 0                       # number of redundant prefetches already in cache/mshr dropped
system.l2cache.prefetcher.pfRemovedFull             0                       # number of prefetches dropped due to prefetch queue size
system.l2cache.prefetcher.pfSpanPage              106                       # number of prefetches that crossed the page
system.membus.snoop_filter.hit_multi_requests            0                       # Number of requests hitting in the snoop filter with multiple (>1) holders of the requested data.
system.membus.snoop_filter.hit_multi_snoops            0                       # Number of snoops hitting in the snoop filter with multiple (>1) holders of the requested data.
system.membus.snoop_filter.hit_single_requests         9557                       # Number of requests hitting in the snoop filter with a single holder of the requested data.
system.membus.snoop_filter.hit_single_snoops            0                       # Number of snoops hitting in the snoop filter with a single holder of the requested data.
system.membus.snoop_filter.tot_requests         23240                       # Total number of requests made to the snoop filter.
system.membus.snoop_filter.tot_snoops               0                       # Total number of snoops made to the snoop filter.
system.membus.pwrStateResidencyTicks::UNDEFINED   1308407200                       # Cumulative time (in ticks) in various power states
system.membus.trans_dist::ReadResp              12369                       # Transaction distribution
system.membus.trans_dist::WritebackDirty         1352                       # Transaction distribution
system.membus.trans_dist::CleanEvict             8205                       # Transaction distribution
system.membus.trans_dist::ReadExReq              1314                       # Transaction distribution
system.membus.trans_dist::ReadExResp             1314                       # Transaction distribution
system.membus.trans_dist::ReadSharedReq         12369                       # Transaction distribution
system.membus.pkt_count_system.l2cache.mem_side::system.mem_ctrl.port        36923                       # Packet count per connected master and slave (bytes)
system.membus.pkt_count_system.l2cache.mem_side::total        36923                       # Packet count per connected master and slave (bytes)
system.membus.pkt_count::total                  36923                       # Packet count per connected master and slave (bytes)
system.membus.pkt_size_system.l2cache.mem_side::system.mem_ctrl.port       962240                       # Cumulative packet size per connected master and slave (bytes)
system.membus.pkt_size_system.l2cache.mem_side::total       962240                       # Cumulative packet size per connected master and slave (bytes)
system.membus.pkt_size::total                  962240                       # Cumulative packet size per connected master and slave (bytes)
system.membus.snoops                                0                       # Total snoops (count)
system.membus.snoopTraffic                          0                       # Total snoop traffic (bytes)
system.membus.snoop_fanout::samples             13683                       # Request fanout histogram
system.membus.snoop_fanout::mean                    0                       # Request fanout histogram
system.membus.snoop_fanout::stdev                   0                       # Request fanout histogram
system.membus.snoop_fanout::underflows              0      0.00%      0.00% # Request fanout histogram
system.membus.snoop_fanout::0                   13683    100.00%    100.00% # Request fanout histogram
system.membus.snoop_fanout::1                       0      0.00%    100.00% # Request fanout histogram
system.membus.snoop_fanout::overflows               0      0.00%    100.00% # Request fanout histogram
system.membus.snoop_fanout::min_value               0                       # Request fanout histogram
system.membus.snoop_fanout::max_value               0                       # Request fanout histogram
system.membus.snoop_fanout::total               13683                       # Request fanout histogram
system.membus.reqLayer2.occupancy            11483936                       # Layer occupancy (ticks)
system.membus.reqLayer2.utilization               0.9                       # Layer utilization (%)
system.membus.respLayer0.occupancy           29715164                       # Layer occupancy (ticks)
system.membus.respLayer0.utilization              2.3                       # Layer utilization (%)
system.l2bus.pwrStateResidencyTicks::UNDEFINED   1308407200                       # Cumulative time (in ticks) in various power states
system.l2bus.trans_dist::ReadResp               18272                       # Transaction distribution
system.l2bus.trans_dist::WritebackDirty          4166                       # Transaction distribution
system.l2bus.trans_dist::CleanEvict             24523                       # Transaction distribution
system.l2bus.trans_dist::HardPFReq                950                       # Transaction distribution
system.l2bus.trans_dist::ReadExReq               2052                       # Transaction distribution
system.l2bus.trans_dist::ReadExResp              2052                       # Transaction distribution
system.l2bus.trans_dist::ReadSharedReq          18272                       # Transaction distribution
system.l2bus.pkt_count_system.cpu.icache.mem_side::system.l2cache.cpu_side         9274                       # Packet count per connected master and slave (bytes)
system.l2bus.pkt_count_system.cpu.dcache.mem_side::system.l2cache.cpu_side        50417                       # Packet count per connected master and slave (bytes)
system.l2bus.pkt_count::total                   59691                       # Packet count per connected master and slave (bytes)
system.l2bus.pkt_size_system.cpu.icache.mem_side::system.l2cache.cpu_side       203264                       # Cumulative packet size per connected master and slave (bytes)
system.l2bus.pkt_size_system.cpu.dcache.mem_side::system.l2cache.cpu_side      1277504                       # Cumulative packet size per connected master and slave (bytes)
system.l2bus.pkt_size::total                  1480768                       # Cumulative packet size per connected master and slave (bytes)
system.l2bus.snoops                             10596                       # Total snoops (count)
system.l2bus.snoopTraffic                       86592                       # Total snoop traffic (bytes)
system.l2bus.snoop_fanout::samples              30919                       # Request fanout histogram
system.l2bus.snoop_fanout::mean              0.015266                       # Request fanout histogram
system.l2bus.snoop_fanout::stdev             0.122610                       # Request fanout histogram
system.l2bus.snoop_fanout::underflows               0      0.00%      0.00% # Request fanout histogram
system.l2bus.snoop_fanout::0                    30447     98.47%     98.47% # Request fanout histogram
system.l2bus.snoop_fanout::1                      472      1.53%    100.00% # Request fanout histogram
system.l2bus.snoop_fanout::2                        0      0.00%    100.00% # Request fanout histogram
system.l2bus.snoop_fanout::overflows                0      0.00%    100.00% # Request fanout histogram
system.l2bus.snoop_fanout::min_value                0                       # Request fanout histogram
system.l2bus.snoop_fanout::max_value                1                       # Request fanout histogram
system.l2bus.snoop_fanout::total                30919                       # Request fanout histogram
system.l2bus.respLayer1.occupancy            20577597                       # Layer occupancy (ticks)
system.l2bus.respLayer1.utilization               1.6                       # Layer utilization (%)
system.l2bus.reqLayer0.occupancy             19492847                       # Layer occupancy (ticks)
system.l2bus.reqLayer0.utilization                1.5                       # Layer utilization (%)
system.l2bus.respLayer0.occupancy             3813198                       # Layer occupancy (ticks)
system.l2bus.respLayer0.utilization               0.3                       # Layer utilization (%)
system.clk_domain.clock                           400                       # Clock period in ticks
system.clk_domain.voltage_domain.voltage            1                       # Voltage in Volts
system.cpu.pwrStateResidencyTicks::ON      1308407200                       # Cumulative time (in ticks) in various power states
system.cpu.icache.pwrStateResidencyTicks::UNDEFINED   1308407200                       # Cumulative time (in ticks) in various power states
system.cpu.icache.demand_hits::.cpu.inst       355651                       # number of demand (read+write) hits
system.cpu.icache.demand_hits::total           355651                       # number of demand (read+write) hits
system.cpu.icache.overall_hits::.cpu.inst       355651                       # number of overall hits
system.cpu.icache.overall_hits::total          355651                       # number of overall hits
system.cpu.icache.demand_misses::.cpu.inst         3897                       # number of demand (read+write) misses
system.cpu.icache.demand_misses::total           3897                       # number of demand (read+write) misses
system.cpu.icache.overall_misses::.cpu.inst         3897                       # number of overall misses
system.cpu.icache.overall_misses::total          3897                       # number of overall misses
system.cpu.icache.demand_miss_latency::.cpu.inst    184572400                       # number of demand (read+write) miss cycles
system.cpu.icache.demand_miss_latency::total    184572400                       # number of demand (read+write) miss cycles
system.cpu.icache.overall_miss_latency::.cpu.inst    184572400                       # number of overall miss cycles
system.cpu.icache.overall_miss_latency::total    184572400                       # number of overall miss cycles
system.cpu.icache.demand_accesses::.cpu.inst       359548                       # number of demand (read+write) accesses
system.cpu.icache.demand_accesses::total       359548                       # number of demand (read+write) accesses
system.cpu.icache.overall_accesses::.cpu.inst       359548                       # number of overall (read+write) accesses
system.cpu.icache.overall_accesses::total       359548                       # number of overall (read+write) accesses
system.cpu.icache.demand_miss_rate::.cpu.inst     0.010839                       # miss rate for demand accesses
system.cpu.icache.demand_miss_rate::total     0.010839                       # miss rate for demand accesses
system.cpu.icache.overall_miss_rate::.cpu.inst     0.010839                       # miss rate for overall accesses
system.cpu.icache.overall_miss_rate::total     0.010839                       # miss rate for overall accesses
system.cpu.icache.demand_avg_miss_latency::.cpu.inst 47362.689248                       # average overall miss latency
system.cpu.icache.demand_avg_miss_latency::total 47362.689248                       # average overall miss latency
system.cpu.icache.overall_avg_miss_latency::.cpu.inst 47362.689248                       # average overall miss latency
system.cpu.icache.overall_avg_miss_latency::total 47362.689248                       # average overall miss latency
system.cpu.icache.blocked_cycles::no_mshrs          194                       # number of cycles access was blocked
system.cpu.icache.blocked_cycles::no_targets            0                       # number of cycles access was blocked
system.cpu.icache.blocked::no_mshrs                 6                       # number of cycles access was blocked
system.cpu.icache.blocked::no_targets               0                       # number of cycles access was blocked
system.cpu.icache.avg_blocked_cycles::no_mshrs    32.333333                       # average number of cycles each access was blocked
system.cpu.icache.avg_blocked_cycles::no_targets          nan                       # average number of cycles each access was blocked
system.cpu.icache.demand_mshr_hits::.cpu.inst          720                       # number of demand (read+write) MSHR hits
system.cpu.icache.demand_mshr_hits::total          720                       # number of demand (read+write) MSHR hits
system.cpu.icache.overall_mshr_hits::.cpu.inst          720                       # number of overall MSHR hits
system.cpu.icache.overall_mshr_hits::total          720                       # number of overall MSHR hits
system.cpu.icache.demand_mshr_misses::.cpu.inst         3177                       # number of demand (read+write) MSHR misses
system.cpu.icache.demand_mshr_misses::total         3177                       # number of demand (read+write) MSHR misses
system.cpu.icache.overall_mshr_misses::.cpu.inst         3177                       # number of overall MSHR misses
system.cpu.icache.overall_mshr_misses::total         3177                       # number of overall MSHR misses
system.cpu.icache.demand_mshr_miss_latency::.cpu.inst    149942000                       # number of demand (read+write) MSHR miss cycles
system.cpu.icache.demand_mshr_miss_latency::total    149942000                       # number of demand (read+write) MSHR miss cycles
system.cpu.icache.overall_mshr_miss_latency::.cpu.inst    149942000                       # number of overall MSHR miss cycles
system.cpu.icache.overall_mshr_miss_latency::total    149942000                       # number of overall MSHR miss cycles
system.cpu.icache.demand_mshr_miss_rate::.cpu.inst     0.008836                       # mshr miss rate for demand accesses
system.cpu.icache.demand_mshr_miss_rate::total     0.008836                       # mshr miss rate for demand accesses
system.cpu.icache.overall_mshr_miss_rate::.cpu.inst     0.008836                       # mshr miss rate for overall accesses
system.cpu.icache.overall_mshr_miss_rate::total     0.008836                       # mshr miss rate for overall accesses
system.cpu.icache.demand_avg_mshr_miss_latency::.cpu.inst 47196.096947                       # average overall mshr miss latency
system.cpu.icache.demand_avg_mshr_miss_latency::total 47196.096947                       # average overall mshr miss latency
system.cpu.icache.overall_avg_mshr_miss_latency::.cpu.inst 47196.096947                       # average overall mshr miss latency
system.cpu.icache.overall_avg_mshr_miss_latency::total 47196.096947                       # average overall mshr miss latency
system.cpu.icache.replacements                   2921                       # number of replacements
system.cpu.icache.ReadReq_hits::.cpu.inst       355651                       # number of ReadReq hits
system.cpu.icache.ReadReq_hits::total          355651                       # number of ReadReq hits
system.cpu.icache.ReadReq_misses::.cpu.inst         3897                       # number of ReadReq misses
system.cpu.icache.ReadReq_misses::total          3897                       # number of ReadReq misses
system.cpu.icache.ReadReq_miss_latency::.cpu.inst    184572400                       # number of ReadReq miss cycles
system.cpu.icache.ReadReq_miss_latency::total    184572400                       # number of ReadReq miss cycles
system.cpu.icache.ReadReq_accesses::.cpu.inst       359548                       # number of ReadReq accesses(hits+misses)
system.cpu.icache.ReadReq_accesses::total       359548                       # number of ReadReq accesses(hits+misses)
system.cpu.icache.ReadReq_miss_rate::.cpu.inst     0.010839                       # miss rate for ReadReq accesses
system.cpu.icache.ReadReq_miss_rate::total     0.010839                       # miss rate for ReadReq accesses
system.cpu.icache.ReadReq_avg_miss_latency::.cpu.inst 47362.689248                       # average ReadReq miss latency
system.cpu.icache.ReadReq_avg_miss_latency::total 47362.689248                       # average ReadReq miss latency
system.cpu.icache.ReadReq_mshr_hits::.cpu.inst          720                       # number of ReadReq MSHR hits
system.cpu.icache.ReadReq_mshr_hits::total          720                       # number of ReadReq MSHR hits
system.cpu.icache.ReadReq_mshr_misses::.cpu.inst         3177                       # number of ReadReq MSHR misses
system.cpu.icache.ReadReq_mshr_misses::total         3177                       # number of ReadReq MSHR misses
system.cpu.icache.ReadReq_mshr_miss_latency::.cpu.inst    149942000                       # number of ReadReq MSHR miss cycles
system.cpu.icache.ReadReq_mshr_miss_latency::total    149942000                       # number of ReadReq MSHR miss cycles
system.cpu.icache.ReadReq_mshr_miss_rate::.cpu.inst     0.008836                       # mshr miss rate for ReadReq accesses
system.cpu.icache.ReadReq_mshr_miss_rate::total     0.008836                       # mshr miss rate for ReadReq accesses
system.cpu.icache.ReadReq_avg_mshr_miss_latency::.cpu.inst 47196.096947                       # average ReadReq mshr miss latency
system.cpu.icache.ReadReq_avg_mshr_miss_latency::total 47196.096947                       # average ReadReq mshr miss latency
system.cpu.icache.prefetcher.pwrStateResidencyTicks::UNDEFINED   1308407200                       # Cumulative time (in ticks) in various power states
system.cpu.icache.tags.pwrStateResidencyTicks::UNDEFINED   1308407200                       # Cumulative time (in ticks) in various power states
system.cpu.icache.tags.tagsinuse           253.902319                       # Cycle average of tags in use
system.cpu.icache.tags.total_refs              269787                       # Total number of references to valid blocks.
system.cpu.icache.tags.sampled_refs              2921                       # Sample count of references to valid blocks.
system.cpu.icache.tags.avg_refs             92.361178                       # Average number of references to valid blocks.
system.cpu.icache.tags.warmup_cycle             66400                       # Cycle when the warmup percentage was hit.
system.cpu.icache.tags.occ_blocks::.cpu.inst   253.902319                       # Average occupied blocks per requestor
system.cpu.icache.tags.occ_percent::.cpu.inst     0.991806                       # Average percentage of cache occupancy
system.cpu.icache.tags.occ_percent::total     0.991806                       # Average percentage of cache occupancy
system.cpu.icache.tags.occ_task_id_blocks::1024          256                       # Occupied blocks per task id
system.cpu.icache.tags.age_task_id_blocks_1024::0           78                       # Occupied blocks per task id
system.cpu.icache.tags.age_task_id_blocks_1024::1            5                       # Occupied blocks per task id
system.cpu.icache.tags.age_task_id_blocks_1024::2          168                       # Occupied blocks per task id
system.cpu.icache.tags.age_task_id_blocks_1024::3            5                       # Occupied blocks per task id
system.cpu.icache.tags.occ_task_id_percent::1024            1                       # Percentage of cache occupancy per task id
system.cpu.icache.tags.tag_accesses            722273                       # Number of tag accesses
system.cpu.icache.tags.data_accesses           722273                       # Number of data accesses
system.cpu.dtb.walker.pwrStateResidencyTicks::UNDEFINED   1308407200                       # Cumulative time (in ticks) in various power states
system.cpu.interrupts.clk_domain.clock           6400                       # Clock period in ticks
system.cpu.itb.walker.pwrStateResidencyTicks::UNDEFINED   1308407200                       # Cumulative time (in ticks) in various power states
system.cpu.dcache.pwrStateResidencyTicks::UNDEFINED   1308407200                       # Cumulative time (in ticks) in various power states
system.cpu.dcache.demand_hits::.cpu.data       989500                       # number of demand (read+write) hits
system.cpu.dcache.demand_hits::total           989500                       # number of demand (read+write) hits
system.cpu.dcache.overall_hits::.cpu.data       989500                       # number of overall hits
system.cpu.dcache.overall_hits::total          989500                       # number of overall hits
system.cpu.dcache.demand_misses::.cpu.data        34729                       # number of demand (read+write) misses
system.cpu.dcache.demand_misses::total          34729                       # number of demand (read+write) misses
system.cpu.dcache.overall_misses::.cpu.data        34729                       # number of overall misses
system.cpu.dcache.overall_misses::total         34729                       # number of overall misses
system.cpu.dcache.demand_miss_latency::.cpu.data   1675850400                       # number of demand (read+write) miss cycles
system.cpu.dcache.demand_miss_latency::total   1675850400                       # number of demand (read+write) miss cycles
system.cpu.dcache.overall_miss_latency::.cpu.data   1675850400                       # number of overall miss cycles
system.cpu.dcache.overall_miss_latency::total   1675850400                       # number of overall miss cycles
system.cpu.dcache.demand_accesses::.cpu.data      1024229                       # number of demand (read+write) accesses
system.cpu.dcache.demand_accesses::total      1024229                       # number of demand (read+write) accesses
system.cpu.dcache.overall_accesses::.cpu.data      1024229                       # number of overall (read+write) accesses
system.cpu.dcache.overall_accesses::total      1024229                       # number of overall (read+write) accesses
system.cpu.dcache.demand_miss_rate::.cpu.data     0.033907                       # miss rate for demand accesses
system.cpu.dcache.demand_miss_rate::total     0.033907                       # miss rate for demand accesses
system.cpu.dcache.overall_miss_rate::.cpu.data     0.033907                       # miss rate for overall accesses
system.cpu.dcache.overall_miss_rate::total     0.033907                       # miss rate for overall accesses
system.cpu.dcache.demand_avg_miss_latency::.cpu.data 48255.072130                       # average overall miss latency
system.cpu.dcache.demand_avg_miss_latency::total 48255.072130                       # average overall miss latency
system.cpu.dcache.overall_avg_miss_latency::.cpu.data 48255.072130                       # average overall miss latency
system.cpu.dcache.overall_avg_miss_latency::total 48255.072130                       # average overall miss latency
system.cpu.dcache.blocked_cycles::no_mshrs        28760                       # number of cycles access was blocked
system.cpu.dcache.blocked_cycles::no_targets          162                       # number of cycles access was blocked
system.cpu.dcache.blocked::no_mshrs               749                       # number of cycles access was blocked
system.cpu.dcache.blocked::no_targets               2                       # number of cycles access was blocked
system.cpu.dcache.avg_blocked_cycles::no_mshrs    38.397864                       # average number of cycles each access was blocked
system.cpu.dcache.avg_blocked_cycles::no_targets           81                       # average number of cycles each access was blocked
system.cpu.dcache.unused_prefetches              1906                       # number of HardPF blocks evicted w/o reference
system.cpu.dcache.writebacks::.writebacks         2814                       # number of writebacks
system.cpu.dcache.writebacks::total              2814                       # number of writebacks
system.cpu.dcache.demand_mshr_hits::.cpu.data        22131                       # number of demand (read+write) MSHR hits
system.cpu.dcache.demand_mshr_hits::total        22131                       # number of demand (read+write) MSHR hits
system.cpu.dcache.overall_mshr_hits::.cpu.data        22131                       # number of overall MSHR hits
system.cpu.dcache.overall_mshr_hits::total        22131                       # number of overall MSHR hits
system.cpu.dcache.demand_mshr_misses::.cpu.data        12598                       # number of demand (read+write) MSHR misses
system.cpu.dcache.demand_mshr_misses::total        12598                       # number of demand (read+write) MSHR misses
system.cpu.dcache.overall_mshr_misses::.cpu.data        12598                       # number of overall MSHR misses
system.cpu.dcache.overall_mshr_misses::.cpu.dcache.prefetcher         4549                       # number of overall MSHR misses
system.cpu.dcache.overall_mshr_misses::total        17147                       # number of overall MSHR misses
system.cpu.dcache.demand_mshr_miss_latency::.cpu.data    572740400                       # number of demand (read+write) MSHR miss cycles
system.cpu.dcache.demand_mshr_miss_latency::total    572740400                       # number of demand (read+write) MSHR miss cycles
system.cpu.dcache.overall_mshr_miss_latency::.cpu.data    572740400                       # number of overall MSHR miss cycles
system.cpu.dcache.overall_mshr_miss_latency::.cpu.dcache.prefetcher    260582704                       # number of overall MSHR miss cycles
system.cpu.dcache.overall_mshr_miss_latency::total    833323104                       # number of overall MSHR miss cycles
system.cpu.dcache.demand_mshr_miss_rate::.cpu.data     0.012300                       # mshr miss rate for demand accesses
system.cpu.dcache.demand_mshr_miss_rate::total     0.012300                       # mshr miss rate for demand accesses
system.cpu.dcache.overall_mshr_miss_rate::.cpu.data     0.012300                       # mshr miss rate for overall accesses
system.cpu.dcache.overall_mshr_miss_rate::.cpu.dcache.prefetcher          inf                       # mshr miss rate for overall accesses
system.cpu.dcache.overall_mshr_miss_rate::total     0.016741                       # mshr miss rate for overall accesses
system.cpu.dcache.demand_avg_mshr_miss_latency::.cpu.data 45462.803620                       # average overall mshr miss latency
system.cpu.dcache.demand_avg_mshr_miss_latency::total 45462.803620                       # average overall mshr miss latency
system.cpu.dcache.overall_avg_mshr_miss_latency::.cpu.data 45462.803620                       # average overall mshr miss latency
system.cpu.dcache.overall_avg_mshr_miss_latency::.cpu.dcache.prefetcher 57283.513739                       # average overall mshr miss latency
system.cpu.dcache.overall_avg_mshr_miss_latency::total 48598.769697                       # average overall mshr miss latency
system.cpu.dcache.replacements                  16123                       # number of replacements
system.cpu.dcache.ReadReq_hits::.cpu.data       718422                       # number of ReadReq hits
system.cpu.dcache.ReadReq_hits::total          718422                       # number of ReadReq hits
system.cpu.dcache.ReadReq_misses::.cpu.data        32643                       # number of ReadReq misses
system.cpu.dcache.ReadReq_misses::total         32643                       # number of ReadReq misses
system.cpu.dcache.ReadReq_miss_latency::.cpu.data   1573230400                       # number of ReadReq miss cycles
system.cpu.dcache.ReadReq_miss_latency::total   1573230400                       # number of ReadReq miss cycles
system.cpu.dcache.ReadReq_accesses::.cpu.data       751065                       # number of ReadReq accesses(hits+misses)
system.cpu.dcache.ReadReq_accesses::total       751065                       # number of ReadReq accesses(hits+misses)
system.cpu.dcache.ReadReq_miss_rate::.cpu.data     0.043462                       # miss rate for ReadReq accesses
system.cpu.dcache.ReadReq_miss_rate::total     0.043462                       # miss rate for ReadReq accesses
system.cpu.dcache.ReadReq_avg_miss_latency::.cpu.data 48195.031094                       # average ReadReq miss latency
system.cpu.dcache.ReadReq_avg_miss_latency::total 48195.031094                       # average ReadReq miss latency
system.cpu.dcache.ReadReq_mshr_hits::.cpu.data        22097                       # number of ReadReq MSHR hits
system.cpu.dcache.ReadReq_mshr_hits::total        22097                       # number of ReadReq MSHR hits
system.cpu.dcache.ReadReq_mshr_misses::.cpu.data        10546                       # number of ReadReq MSHR misses
system.cpu.dcache.ReadReq_mshr_misses::total        10546                       # number of ReadReq MSHR misses
system.cpu.dcache.ReadReq_mshr_miss_latency::.cpu.data    472881200                       # number of ReadReq MSHR miss cycles
system.cpu.dcache.ReadReq_mshr_miss_latency::total    472881200                       # number of ReadReq MSHR miss cycles
system.cpu.dcache.ReadReq_mshr_miss_rate::.cpu.data     0.014041                       # mshr miss rate for ReadReq accesses
system.cpu.dcache.ReadReq_mshr_miss_rate::total     0.014041                       # mshr miss rate for ReadReq accesses
system.cpu.dcache.ReadReq_avg_mshr_miss_latency::.cpu.data 44839.863455                       # average ReadReq mshr miss latency
system.cpu.dcache.ReadReq_avg_mshr_miss_latency::total 44839.863455                       # average ReadReq mshr miss latency
system.cpu.dcache.WriteReq_hits::.cpu.data       271078                       # number of WriteReq hits
system.cpu.dcache.WriteReq_hits::total         271078                       # number of WriteReq hits
system.cpu.dcache.WriteReq_misses::.cpu.data         2086                       # number of WriteReq misses
system.cpu.dcache.WriteReq_misses::total         2086                       # number of WriteReq misses
system.cpu.dcache.WriteReq_miss_latency::.cpu.data    102620000                       # number of WriteReq miss cycles
system.cpu.dcache.WriteReq_miss_latency::total    102620000                       # number of WriteReq miss cycles
system.cpu.dcache.WriteReq_accesses::.cpu.data       273164                       # number of WriteReq accesses(hits+misses)
system.cpu.dcache.WriteReq_accesses::total       273164                       # number of WriteReq accesses(hits+misses)
system.cpu.dcache.WriteReq_miss_rate::.cpu.data     0.007636                       # miss rate for WriteReq accesses
system.cpu.dcache.WriteReq_miss_rate::total     0.007636                       # miss rate for WriteReq accesses
system.cpu.dcache.WriteReq_avg_miss_latency::.cpu.data 49194.630872                       # average WriteReq miss latency
system.cpu.dcache.WriteReq_avg_miss_latency::total 49194.630872                       # average WriteReq miss latency
system.cpu.dcache.WriteReq_mshr_hits::.cpu.data           34                       # number of WriteReq MSHR hits
system.cpu.dcache.WriteReq_mshr_hits::total           34                       # number of WriteReq MSHR hits
system.cpu.dcache.WriteReq_mshr_misses::.cpu.data         2052                       # number of WriteReq MSHR misses
system.cpu.dcache.WriteReq_mshr_misses::total         2052                       # number of WriteReq MSHR misses
[...]
system.l2cache.demand_mshr_misses::.cpu.data           84                       # number of demand (read+write) MSHR misses
system.l2cache.demand_mshr_misses::.cpu.dcache.prefetcher           19                       # number of demand (read+write) MSHR misses
system.l2cache.demand_mshr_misses::total          261                       # number of demand (read+write) MSHR misses
system.l2cache.overall_mshr_misses::.cpu.inst          158                       # number of overall MSHR misses
system.l2cache.overall_mshr_misses::.cpu.data           84                       # number of overall MSHR misses
system.l2cache.overall_mshr_misses::.cpu.dcache.prefetcher           19                       # number of overall MSHR misses
system.l2cache.overall_mshr_misses::total          261                       # number of overall MSHR misses
system.l2cache.demand_mshr_miss_latency::.cpu.inst      9252800                       # number of demand (read+write) MSHR miss cycles
system.l2cache.demand_mshr_miss_latency::.cpu.data      4856400                       # number of demand (read+write) MSHR miss cycles
system.l2cache.demand_mshr_miss_latency::.cpu.dcache.prefetcher      1101981                       # number of demand (read+write) MSHR miss cycles
system.l2cache.demand_mshr_miss_latency::total     15211181                       # number of demand (read+write) MSHR miss cycles
system.l2cache.overall_mshr_miss_latency::.cpu.inst      9252800                       # number of overall MSHR miss cycles
system.l2cache.overall_mshr_miss_latency::.cpu.data      4856400                       # number of overall MSHR miss cycles
system.l2cache.overall_mshr_miss_latency::.cpu.dcache.prefetcher      1101981                       # number of overall MSHR miss cycles
system.l2cache.overall_mshr_miss_latency::total     15211181                       # number of overall MSHR miss cycles
system.l2cache.demand_mshr_miss_rate::.cpu.inst     0.310413                       # mshr miss rate for demand accesses
system.l2cache.demand_mshr_miss_rate::.cpu.data     0.518519                       # mshr miss rate for demand accesses
system.l2cache.demand_mshr_miss_rate::.cpu.dcache.prefetcher     0.760000                       # mshr miss rate for demand accesses
system.l2cache.demand_mshr_miss_rate::total     0.375000                       # mshr miss rate for demand accesses
system.l2cache.overall_mshr_miss_rate::.cpu.inst     0.310413                       # mshr miss rate for overall accesses
system.l2cache.overall_mshr_miss_rate::.cpu.data     0.518519                       # mshr miss rate for overall accesses
system.l2cache.overall_mshr_miss_rate::.cpu.dcache.prefetcher     0.760000                       # mshr miss rate for overall accesses
system.l2cache.overall_mshr_miss_rate::total     0.375000                       # mshr miss rate for overall accesses
system.l2cache.demand_avg_mshr_miss_latency::.cpu.inst 58562.025316                       # average overall mshr miss latency
system.l2cache.demand_avg_mshr_miss_latency::.cpu.data 57814.285714                       # average overall mshr miss latency
system.l2cache.demand_avg_mshr_miss_latency::.cpu.dcache.prefetcher        57999                       # average overall mshr miss latency
system.l2cache.demand_avg_mshr_miss_latency::total 58280.386973                       # average overall mshr miss latency
system.l2cache.overall_avg_mshr_miss_latency::.cpu.inst 58562.025316                       # average overall mshr miss latency
system.l2cache.overall_avg_mshr_miss_latency::.cpu.data 57814.285714                       # average overall mshr miss latency
system.l2cache.overall_avg_mshr_miss_latency::.cpu.dcache.prefetcher        57999                       # average overall mshr miss latency
system.l2cache.overall_avg_mshr_miss_latency::total 58280.386973                       # average overall mshr miss latency
system.l2cache.replacements                       265                       # number of replacements
system.l2cache.WritebackDirty_hits::.writebacks           61                       # number of WritebackDirty hits
system.l2cache.WritebackDirty_hits::total           61                       # number of WritebackDirty hits
system.l2cache.WritebackDirty_accesses::.writebacks           61                       # number of WritebackDirty accesses(hits+misses)
system.l2cache.WritebackDirty_accesses::total           61                       # number of WritebackDirty accesses(hits+misses)
system.l2cache.CleanEvict_mshr_misses::.writebacks            6                       # number of CleanEvict MSHR misses
system.l2cache.CleanEvict_mshr_misses::total            6                       # number of CleanEvict MSHR misses
system.l2cache.CleanEvict_mshr_miss_rate::.writebacks          inf                       # mshr miss rate for CleanEvict accesses
system.l2cache.CleanEvict_mshr_miss_rate::total          inf                       # mshr miss rate for CleanEvict accesses
system.l2cache.ReadExReq_hits::.cpu.data            3                       # number of ReadExReq hits
system.l2cache.ReadExReq_hits::total                3                       # number of ReadExReq hits
system.l2cache.ReadExReq_misses::.cpu.data            4                       # number of ReadExReq misses
system.l2cache.ReadExReq_misses::total              4                       # number of ReadExReq misses
system.l2cache.ReadExReq_miss_latency::.cpu.data       267200                       # number of ReadExReq miss cycles
system.l2cache.ReadExReq_miss_latency::total       267200                       # number of ReadExReq miss cycles
system.l2cache.ReadExReq_accesses::.cpu.data            7                       # number of ReadExReq accesses(hits+misses)
system.l2cache.ReadExReq_accesses::total            7                       # number of ReadExReq accesses(hits+misses)
system.l2cache.ReadExReq_miss_rate::.cpu.data     0.571429                       # miss rate for ReadExReq accesses
system.l2cache.ReadExReq_miss_rate::total     0.571429                       # miss rate for ReadExReq accesses
system.l2cache.ReadExReq_avg_miss_latency::.cpu.data        66800                       # average ReadExReq miss latency
system.l2cache.ReadExReq_avg_miss_latency::total        66800                       # average ReadExReq miss latency
system.l2cache.ReadExReq_mshr_misses::.cpu.data            4                       # number of ReadExReq MSHR misses
system.l2cache.ReadExReq_mshr_misses::total            4                       # number of ReadExReq MSHR misses
system.l2cache.ReadExReq_mshr_miss_latency::.cpu.data       235200                       # number of ReadExReq MSHR miss cycles
system.l2cache.ReadExReq_mshr_miss_latency::total       235200                       # number of ReadExReq MSHR miss cycles
system.l2cache.ReadExReq_mshr_miss_rate::.cpu.data     0.571429                       # mshr miss rate for ReadExReq accesses
system.l2cache.ReadExReq_mshr_miss_rate::total     0.571429                       # mshr miss rate for ReadExReq accesses
system.l2cache.ReadExReq_avg_mshr_miss_latency::.cpu.data        58800                       # average ReadExReq mshr miss latency
system.l2cache.ReadExReq_avg_mshr_miss_latency::total        58800                       # average ReadExReq mshr miss latency
system.l2cache.ReadSharedReq_hits::.cpu.inst          351                       # number of ReadSharedReq hits
system.l2cache.ReadSharedReq_hits::.cpu.data           75                       # number of ReadSharedReq hits
system.l2cache.ReadSharedReq_hits::.cpu.dcache.prefetcher            6                       # number of ReadSharedReq hits
system.l2cache.ReadSharedReq_hits::total          432                       # number of ReadSharedReq hits
system.l2cache.ReadSharedReq_misses::.cpu.inst          158                       # number of ReadSharedReq misses
system.l2cache.ReadSharedReq_misses::.cpu.data           80                       # number of ReadSharedReq misses
system.l2cache.ReadSharedReq_misses::.cpu.dcache.prefetcher           19                       # number of ReadSharedReq misses
system.l2cache.ReadSharedReq_misses::total          257                       # number of ReadSharedReq misses
system.l2cache.ReadSharedReq_miss_latency::.cpu.inst     10508800                       # number of ReadSharedReq miss cycles
system.l2cache.ReadSharedReq_miss_latency::.cpu.data      5261200                       # number of ReadSharedReq miss cycles
system.l2cache.ReadSharedReq_miss_latency::.cpu.dcache.prefetcher      1253981                       # number of ReadSharedReq miss cycles
system.l2cache.ReadSharedReq_miss_latency::total     17023981                       # number of ReadSharedReq miss cycles
system.l2cache.ReadSharedReq_accesses::.cpu.inst          509                       # number of ReadSharedReq accesses(hits+misses)
system.l2cache.ReadSharedReq_accesses::.cpu.data          155                       # number of ReadSharedReq accesses(hits+misses)
system.l2cache.ReadSharedReq_accesses::.cpu.dcache.prefetcher           25                       # number of ReadSharedReq accesses(hits+misses)
system.l2cache.ReadSharedReq_accesses::total          689                       # number of ReadSharedReq accesses(hits+misses)
system.l2cache.ReadSharedReq_miss_rate::.cpu.inst     0.310413                       # miss rate for ReadSharedReq accesses
system.l2cache.ReadSharedReq_miss_rate::.cpu.data     0.516129                       # miss rate for ReadSharedReq accesses
system.l2cache.ReadSharedReq_miss_rate::.cpu.dcache.prefetcher     0.760000                       # miss rate for ReadSharedReq accesses
system.l2cache.ReadSharedReq_miss_rate::total     0.373004                       # miss rate for ReadSharedReq accesses
system.l2cache.ReadSharedReq_avg_miss_latency::.cpu.inst 66511.392405                       # average ReadSharedReq miss latency
system.l2cache.ReadSharedReq_avg_miss_latency::.cpu.data        65765                       # average ReadSharedReq miss latency
system.l2cache.ReadSharedReq_avg_miss_latency::.cpu.dcache.prefetcher        65999                       # average ReadSharedReq miss latency
system.l2cache.ReadSharedReq_avg_miss_latency::total 66241.171206                       # average ReadSharedReq miss latency
system.l2cache.ReadSharedReq_mshr_misses::.cpu.inst          158                       # number of ReadSharedReq MSHR misses
system.l2cache.ReadSharedReq_mshr_misses::.cpu.data           80                       # number of ReadSharedReq MSHR misses
system.l2cache.ReadSharedReq_mshr_misses::.cpu.dcache.prefetcher           19                       # number of ReadSharedReq MSHR misses
system.l2cache.ReadSharedReq_mshr_misses::total          257                       # number of ReadSharedReq MSHR misses
system.l2cache.ReadSharedReq_mshr_miss_latency::.cpu.inst      9252800                       # number of ReadSharedReq MSHR miss cycles
system.l2cache.ReadSharedReq_mshr_miss_latency::.cpu.data      4621200                       # number of ReadSharedReq MSHR miss cycles
system.l2cache.ReadSharedReq_mshr_miss_latency::.cpu.dcache.prefetcher      1101981                       # number of ReadSharedReq MSHR miss cycles
system.l2cache.ReadSharedReq_mshr_miss_latency::total     14975981                       # number of ReadSharedReq MSHR miss cycles
system.l2cache.ReadSharedReq_mshr_miss_rate::.cpu.inst     0.310413                       # mshr miss rate for ReadSharedReq accesses
system.l2cache.ReadSharedReq_mshr_miss_rate::.cpu.data     0.516129                       # mshr miss rate for ReadSharedReq accesses
system.l2cache.ReadSharedReq_mshr_miss_rate::.cpu.dcache.prefetcher     0.760000                       # mshr miss rate for ReadSharedReq accesses
system.l2cache.ReadSharedReq_mshr_miss_rate::total     0.373004                       # mshr miss rate for ReadSharedReq accesses
system.l2cache.ReadSharedReq_avg_mshr_miss_latency::.cpu.inst 58562.025316                       # average ReadSharedReq mshr miss latency
system.l2cache.ReadSharedReq_avg_mshr_miss_latency::.cpu.data        57765                       # average ReadSharedReq mshr miss latency
system.l2cache.ReadSharedReq_avg_mshr_miss_latency::.cpu.dcache.prefetcher        57999                       # average ReadSharedReq mshr miss latency
system.l2cache.ReadSharedReq_avg_mshr_miss_latency::total 58272.299611                       # average ReadSharedReq mshr miss latency
system.l2cache.prefetcher.pwrStateResidencyTicks::UNDEFINED    236681200                       # Cumulative time (in ticks) in various power states
system.l2cache.tags.pwrStateResidencyTicks::UNDEFINED    236681200                       # Cumulative time (in ticks) in various power states
system.l2cache.tags.tagsinuse                    4096                       # Cycle average of tags in use
system.l2cache.tags.total_refs                  14274                       # Total number of references to valid blocks.
system.l2cache.tags.sampled_refs                 4361                       # Sample count of references to valid blocks.
system.l2cache.tags.avg_refs                 3.273102                       # Average number of references to valid blocks.
system.l2cache.tags.warmup_cycle                    0                       # Cycle when the warmup percentage was hit.
system.l2cache.tags.occ_blocks::.writebacks    40.004649                       # Average occupied blocks per requestor
system.l2cache.tags.occ_blocks::.cpu.inst  1129.271779                       # Average occupied blocks per requestor
system.l2cache.tags.occ_blocks::.cpu.data  1800.059219                       # Average occupied blocks per requestor
system.l2cache.tags.occ_blocks::.cpu.dcache.prefetcher   991.844854                       # Average occupied blocks per requestor
system.l2cache.tags.occ_blocks::.l2cache.prefetcher   134.819499                       # Average occupied blocks per requestor
system.l2cache.tags.occ_percent::.writebacks     0.009767                       # Average percentage of cache occupancy
system.l2cache.tags.occ_percent::.cpu.inst     0.275701                       # Average percentage of cache occupancy
system.l2cache.tags.occ_percent::.cpu.data     0.439468                       # Average percentage of cache occupancy
system.l2cache.tags.occ_percent::.cpu.dcache.prefetcher     0.242150                       # Average percentage of cache occupancy
system.l2cache.tags.occ_percent::.l2cache.prefetcher     0.032915                       # Average percentage of cache occupancy
system.l2cache.tags.occ_percent::total              1                       # Average percentage of cache occupancy
system.l2cache.tags.occ_task_id_blocks::1022         1073                       # Occupied blocks per task id
system.l2cache.tags.occ_task_id_blocks::1024         3023                       # Occupied blocks per task id
system.l2cache.tags.age_task_id_blocks_1022::0           11                       # Occupied blocks per task id
system.l2cache.tags.age_task_id_blocks_1022::1            4                       # Occupied blocks per task id
system.l2cache.tags.age_task_id_blocks_1022::2         1000                       # Occupied blocks per task id
system.l2cache.tags.age_task_id_blocks_1022::3           58                       # Occupied blocks per task id
system.l2cache.tags.age_task_id_blocks_1024::0          168                       # Occupied blocks per task id
system.l2cache.tags.age_task_id_blocks_1024::1           37                       # Occupied blocks per task id
system.l2cache.tags.age_task_id_blocks_1024::2         2592                       # Occupied blocks per task id
system.l2cache.tags.age_task_id_blocks_1024::3          226                       # Occupied blocks per task id
system.l2cache.tags.occ_task_id_percent::1022     0.261963                       # Percentage of cache occupancy per task id
system.l2cache.tags.occ_task_id_percent::1024     0.738037                       # Percentage of cache occupancy per task id
system.l2cache.tags.tag_accesses                11393                       # Number of tag accesses
system.l2cache.tags.data_accesses               11393                       # Number of data accesses
system.mem_ctrl.pwrStateResidencyTicks::UNDEFINED    236681200                       # Cumulative time (in ticks) in various power states
system.mem_ctrl.bytes_read::.cpu.inst           10048                       # Number of bytes read from this memory
system.mem_ctrl.bytes_read::.cpu.data            5376                       # Number of bytes read from this memory
system.mem_ctrl.bytes_read::.cpu.dcache.prefetcher         1216                       # Number of bytes read from this memory
system.mem_ctrl.bytes_read::total               16640                       # Number of bytes read from this memory
system.mem_ctrl.bytes_inst_read::.cpu.inst        10048                       # Number of instructions bytes read from this memory
system.mem_ctrl.bytes_inst_read::total          10048                       # Number of instructions bytes read from this memory
system.mem_ctrl.bytes_written::.writebacks         1088                       # Number of bytes written to this memory
system.mem_ctrl.bytes_written::total             1088                       # Number of bytes written to this memory
system.mem_ctrl.num_reads::.cpu.inst              157                       # Number of read requests responded to by this memory
system.mem_ctrl.num_reads::.cpu.data               84                       # Number of read requests responded to by this memory
system.mem_ctrl.num_reads::.cpu.dcache.prefetcher           19                       # Number of read requests responded to by this memory
system.mem_ctrl.num_reads::total                  260                       # Number of read requests responded to by this memory
system.mem_ctrl.num_writes::.writebacks            17                       # Number of write requests responded to by this memory
system.mem_ctrl.num_writes::total                  17                       # Number of write requests responded to by this memory
system.mem_ctrl.bw_read::.cpu.inst           42453731                       # Total read bandwidth from this memory (bytes/s)
system.mem_ctrl.bw_read::.cpu.data           22714098                       # Total read bandwidth from this memory (bytes/s)
system.mem_ctrl.bw_read::.cpu.dcache.prefetcher      5137713                       # Total read bandwidth from this memory (bytes/s)
system.mem_ctrl.bw_read::total               70305542                       # Total read bandwidth from this memory (bytes/s)
system.mem_ctrl.bw_inst_read::.cpu.inst      42453731                       # Instruction read bandwidth from this memory (bytes/s)
system.mem_ctrl.bw_inst_read::total          42453731                       # Instruction read bandwidth from this memory (bytes/s)
system.mem_ctrl.bw_write::.writebacks         4596901                       # Write bandwidth from this memory (bytes/s)
system.mem_ctrl.bw_write::total               4596901                       # Write bandwidth from this memory (bytes/s)
system.mem_ctrl.bw_total::.writebacks         4596901                       # Total bandwidth to/from this memory (bytes/s)
system.mem_ctrl.bw_total::.cpu.inst          42453731                       # Total bandwidth to/from this memory (bytes/s)
system.mem_ctrl.bw_total::.cpu.data          22714098                       # Total bandwidth to/from this memory (bytes/s)
system.mem_ctrl.bw_total::.cpu.dcache.prefetcher      5137713                       # Total bandwidth to/from this memory (bytes/s)
system.mem_ctrl.bw_total::total              74902443                       # Total bandwidth to/from this memory (bytes/s)

---------- End Simulation Statistics   ----------
