
---------- Begin Simulation Statistics ----------
final_tick                                 1094776000                       # Number of ticks from beginning of simulation (restored from checkpoints and never reset)
host_inst_rate                                 184483                       # Simulator instruction rate (inst/s)
host_mem_usage                                4402748                       # Number of bytes of host memory used
host_op_rate                                   320310                       # Simulator op (including micro ops) rate (op/s)
host_seconds                                    11.27                       # Real time elapsed on the host
host_tick_rate                               97131410                       # Simulator tick rate (ticks/s)
sim_freq                                 1000000000000                       # Frequency of simulated ticks
sim_insts                                     2079306                       # Number of instructions simulated
sim_ops                                       3610237                       # Number of ops (including micro ops) simulated
sim_seconds                                  0.001095                       # Number of seconds simulated
sim_ticks                                  1094776000                       # Number of ticks simulated
system.cpu.branchPred.BTBCorrect                    0                       # Number of correct BTB predictions (this stat may not work properly.
system.cpu.branchPred.BTBHitPct              0.000000                       # BTB Hit Percentage
system.cpu.branchPred.BTBHits                       0                       # Number of BTB hits
system.cpu.branchPred.BTBLookups               438472                       # Number of BTB lookups
system.cpu.branchPred.RASInCorrect                  6                       # Number of incorrect RAS predictions.
system.cpu.branchPred.condIncorrect             24627                       # Number of conditional branches incorrect
system.cpu.branchPred.condPredicted            464909                       # Number of conditional branches predicted
system.cpu.branchPred.indirectHits             240844                       # Number of indirect target hits.
system.cpu.branchPred.indirectLookups          438472                       # Number of indirect predictor lookups.
system.cpu.branchPred.indirectMisses           197628                       # Number of indirect misses.
system.cpu.branchPred.lookups                  491930                       # Number of BP lookups
system.cpu.branchPred.usedRAS                   11696                       # Number of times the RAS was used to get a target.
system.cpu.branchPredindirectMispredicted        12440                       # Number of mispredicted indirect branches.
system.cpu.cc_regfile_reads                   2371799                       # number of cc regfile reads
system.cpu.cc_regfile_writes                  1956210                       # number of cc regfile writes
system.cpu.commit.amos                              0                       # Number of atomic instructions committed
system.cpu.commit.branchMispredicts             24686                       # The number of times a branch was mispredicted
system.cpu.commit.branches                     345549                       # Number of branches committed
system.cpu.commit.bw_lim_events                598698                       # number cycles where commit BW limit reached
system.cpu.commit.commitNonSpecStalls             732                       # The number of times commit has been forced to stall to communicate backwards
system.cpu.commit.commitSquashedInsts          892447                       # The number of squashed insts skipped by commit
system.cpu.commit.committedInsts              2079306                       # Number of instructions committed
system.cpu.commit.committedOps                3610237                       # Number of ops (including micro ops) committed
system.cpu.commit.committed_per_cycle::samples      2343335                       # Number of insts commited each cycle
system.cpu.commit.committed_per_cycle::mean     1.540641                       # Number of insts commited each cycle
system.cpu.commit.committed_per_cycle::stdev     1.722159                       # Number of insts commited each cycle
system.cpu.commit.committed_per_cycle::underflows            0      0.00%      0.00% # Number of insts commited each cycle
system.cpu.commit.committed_per_cycle::0      1159203     49.47%     49.47% # Number of insts commited each cycle
system.cpu.commit.committed_per_cycle::1       184111      7.86%     57.32% # Number of insts commited each cycle
system.cpu.commit.committed_per_cycle::2       172635      7.37%     64.69% # Number of insts commited each cycle
system.cpu.commit.committed_per_cycle::3       228688      9.76%     74.45% # Number of insts commited each cycle
system.cpu.commit.committed_per_cycle::4       598698     25.55%    100.00% # Number of insts commited each cycle
system.cpu.commit.committed_per_cycle::overflows            0      0.00%    100.00% # Number of insts commited each cycle
system.cpu.commit.committed_per_cycle::min_value            0                       # Number of insts commited each cycle
system.cpu.commit.committed_per_cycle::max_value            4                       # Number of insts commited each cycle
system.cpu.commit.committed_per_cycle::total      2343335                       # Number of insts commited each cycle
system.cpu.commit.fp_insts                      73106                       # Number of committed floating point instructions.
system.cpu.commit.function_calls                 9844                       # Number of function calls committed.
system.cpu.commit.int_insts                   3555773                       # Number of committed integer instructions.
system.cpu.commit.loads                        492228                       # Number of loads committed
system.cpu.commit.membars                           1                       # Number of memory barriers committed
system.cpu.commit.op_class_0::No_OpClass        20276      0.56%      0.56% # Class of committed instruction
system.cpu.commit.op_class_0::IntAlu          2843933     78.77%     79.34% # Class of committed instruction
system.cpu.commit.op_class_0::IntMult            2299      0.06%     79.40% # Class of committed instruction
system.cpu.commit.op_class_0::IntDiv            37861      1.05%     80.45% # Class of committed instruction
system.cpu.commit.op_class_0::FloatAdd           2852      0.08%     80.53% # Class of committed instruction
system.cpu.commit.op_class_0::FloatCmp              0      0.00%     80.53% # Class of committed instruction
system.cpu.commit.op_class_0::FloatCvt           1200      0.03%     80.56% # Class of committed instruction
system.cpu.commit.op_class_0::FloatMult             0      0.00%     80.56% # Class of committed instruction
system.cpu.commit.op_class_0::FloatMultAcc            0      0.00%     80.56% # Class of committed instruction
system.cpu.commit.op_class_0::FloatDiv              0      0.00%     80.56% # Class of committed instruction
system.cpu.commit.op_class_0::FloatMisc             0      0.00%     80.56% # Class of committed instruction
system.cpu.commit.op_class_0::FloatSqrt             0      0.00%     80.56% # Class of committed instruction
system.cpu.commit.op_class_0::SimdAdd            6206      0.17%     80.73% # Class of committed instruction
system.cpu.commit.op_class_0::SimdAddAcc            0      0.00%     80.73% # Class of committed instruction
system.cpu.commit.op_class_0::SimdAlu           11160      0.31%     81.04% # Class of committed instruction
system.cpu.commit.op_class_0::SimdCmp               0      0.00%     81.04% # Class of committed instruction
system.cpu.commit.op_class_0::SimdCvt           12094      0.33%     81.38% # Class of committed instruction
system.cpu.commit.op_class_0::SimdMisc           6501      0.18%     81.56% # Class of committed instruction
system.cpu.commit.op_class_0::SimdMult              0      0.00%     81.56% # Class of committed instruction
system.cpu.commit.op_class_0::SimdMultAcc            0      0.00%     81.56% # Class of committed instruction
system.cpu.commit.op_class_0::SimdShift          1091      0.03%     81.59% # Class of committed instruction
system.cpu.commit.op_class_0::SimdShiftAcc            0      0.00%     81.59% # Class of committed instruction
system.cpu.commit.op_class_0::SimdDiv               0      0.00%     81.59% # Class of committed instruction
system.cpu.commit.op_class_0::SimdSqrt              0      0.00%     81.59% # Class of committed instruction
system.cpu.commit.op_class_0::SimdFloatAdd            0      0.00%     81.59% # Class of committed instruction
system.cpu.commit.op_class_0::SimdFloatAlu            0      0.00%     81.59% # Class of committed instruction
system.cpu.commit.op_class_0::SimdFloatCmp            0      0.00%     81.59% # Class of committed instruction
system.cpu.commit.op_class_0::SimdFloatCvt            0      0.00%     81.59% # Class of committed instruction
system.cpu.commit.op_class_0::SimdFloatDiv            0      0.00%     81.59% # Class of committed instruction
system.cpu.commit.op_class_0::SimdFloatMisc            0      0.00%     81.59% # Class of committed instruction
system.cpu.commit.op_class_0::SimdFloatMult            0      0.00%     81.59% # Class of committed instruction
system.cpu.commit.op_class_0::SimdFloatMultAcc            0      0.00%     81.59% # Class of committed instruction
system.cpu.commit.op_class_0::SimdFloatSqrt            0      0.00%     81.59% # Class of committed instruction
system.cpu.commit.op_class_0::SimdReduceAdd            0      0.00%     81.59% # Class of committed instruction
system.cpu.commit.op_class_0::SimdReduceAlu            0      0.00%     81.59% # Class of committed instruction
system.cpu.commit.op_class_0::SimdReduceCmp            0      0.00%     81.59% # Class of committed instruction
system.cpu.commit.op_class_0::SimdFloatReduceAdd            0      0.00%     81.59% # Class of committed instruction
system.cpu.commit.op_class_0::SimdFloatReduceCmp            0      0.00%     81.59% # Class of committed instruction
system.cpu.commit.op_class_0::SimdAes               0      0.00%     81.59% # Class of committed instruction
system.cpu.commit.op_class_0::SimdAesMix            0      0.00%     81.59% # Class of committed instruction
system.cpu.commit.op_class_0::SimdSha1Hash            0      0.00%     81.59% # Class of committed instruction
system.cpu.commit.op_class_0::SimdSha1Hash2            0      0.00%     81.59% # Class of committed instruction
system.cpu.commit.op_class_0::SimdSha256Hash            0      0.00%     81.59% # Class of committed instruction
system.cpu.commit.op_class_0::SimdSha256Hash2            0      0.00%     81.59% # Class of committed instruction
system.cpu.commit.op_class_0::SimdShaSigma2            0      0.00%     81.59% # Class of committed instruction
system.cpu.commit.op_class_0::SimdShaSigma3            0      0.00%     81.59% # Class of committed instruction
system.cpu.commit.op_class_0::SimdPredAlu            0      0.00%     81.59% # Class of committed instruction
system.cpu.commit.op_class_0::MemRead          473130     13.11%     94.69% # Class of committed instruction
system.cpu.commit.op_class_0::MemWrite         160467      4.44%     99.14% # Class of committed instruction
system.cpu.commit.op_class_0::FloatMemRead        19098      0.53%     99.67% # Class of committed instruction
system.cpu.commit.op_class_0::FloatMemWrite        12069      0.33%    100.00% # Class of committed instruction
system.cpu.commit.op_class_0::IprAccess             0      0.00%    100.00% # Class of committed instruction
system.cpu.commit.op_class_0::InstPrefetch            0      0.00%    100.00% # Class of committed instruction
system.cpu.commit.op_class_0::total           3610237                       # Class of committed instruction
system.cpu.commit.refs                         664764                       # Number of memory references committed
system.cpu.commit.swp_count                         0                       # Number of s/w prefetches committed
system.cpu.commit.vec_insts                         0                       # Number of committed Vector instructions.
system.cpu.committedInsts                     2079306                       # Number of Instructions Simulated
system.cpu.committedOps                       3610237                       # Number of Ops (including micro ops) Simulated
system.cpu.cpi                               1.316276                       # CPI: Cycles Per Instruction
system.cpu.cpi_total                         1.316276                       # CPI: Total CPI of All Threads
system.cpu.dcache.prefetcher.num_hwpf_issued         7857                       # number of hwpf issued
system.cpu.dcache.prefetcher.pfBufferHit        33897                       # number of redundant prefetches already in prefetch queue
system.cpu.dcache.prefetcher.pfIdentified        49246                       # number of prefetch candidates identified
system.cpu.dcache.prefetcher.pfInCache              0                       # number of redundant prefetches already in cache/mshr dropped
system.cpu.dcache.prefetcher.pfRemovedFull            0                       # number of prefetches dropped due to prefetch queue size
system.cpu.dcache.prefetcher.pfSpanPage          4254                       # number of prefetches that crossed the page
system.cpu.decode.BlockedCycles               1031581                       # Number of cycles decode is blocked
system.cpu.decode.DecodedInsts                4723832                       # Number of instructions handled by decode
system.cpu.decode.IdleCycles                   294569                       # Number of cycles decode is idle
system.cpu.decode.RunCycles                   1145299                       # Number of cycles decode is running
system.cpu.decode.SquashCycles                  24751                       # Number of cycles decode is squashing
system.cpu.decode.UnblockCycles                 90896                       # Number of cycles decode is unblocking
system.cpu.dtb.rdAccesses                      576743                       # TLB accesses on read requests
system.cpu.dtb.rdMisses                          2184                       # TLB misses on read requests
system.cpu.dtb.wrAccesses                      191926                       # TLB accesses on write requests
system.cpu.dtb.wrMisses                           156                       # TLB misses on write requests
system.cpu.fetch.Branches                      491930                       # Number of branches that fetch encountered
system.cpu.fetch.CacheLines                    245491                       # Number of cache lines fetched
system.cpu.fetch.Cycles                       2229467                       # Number of cycles fetch has run and was not squashing or blocked
system.cpu.fetch.IcacheSquashes                  4616                       # Number of outstanding Icache misses that were squashed
system.cpu.fetch.Insts                        2855823                       # Number of instructions fetch has processed
system.cpu.fetch.MiscStallCycles                   84                       # Number of cycles fetch has spent waiting on interrupts, or bad addresses, or out of MSHRs
system.cpu.fetch.PendingQuiesceStallCycles            6                       # Number of stall cycles due to pending quiesce instructions
system.cpu.fetch.PendingTrapStallCycles           465                       # Number of stall cycles due to pending traps
system.cpu.fetch.SquashCycles                   49502                       # Number of cycles fetch has spent squashing
system.cpu.fetch.branchRate                  0.179737                       # Number of branch fetches per cycle
system.cpu.fetch.icacheStallCycles             332323                       # Number of cycles fetch is stalled on an Icache miss
system.cpu.fetch.predictedBranches             252540                       # Number of branches that fetch has predicted taken
system.cpu.fetch.rate                        1.043436                       # Number of inst fetches per cycle
system.cpu.fetch.rateDist::samples            2587096                       # Number of instructions fetched each cycle (Total)
system.cpu.fetch.rateDist::mean              1.934234                       # Number of instructions fetched each cycle (Total)
system.cpu.fetch.rateDist::stdev             1.929973                       # Number of instructions fetched each cycle (Total)
system.cpu.fetch.rateDist::underflows               0      0.00%      0.00% # Number of instructions fetched each cycle (Total)
system.cpu.fetch.rateDist::0                  1230503     47.56%     47.56% # Number of instructions fetched each cycle (Total)
system.cpu.fetch.rateDist::1                    74024      2.86%     50.42% # Number of instructions fetched each cycle (Total)
system.cpu.fetch.rateDist::2                    61017      2.36%     52.78% # Number of instructions fetched each cycle (Total)
system.cpu.fetch.rateDist::3                    78218      3.02%     55.81% # Number of instructions fetched each cycle (Total)
system.cpu.fetch.rateDist::4                  1143334     44.19%    100.00% # Number of instructions fetched each cycle (Total)
system.cpu.fetch.rateDist::overflows                0      0.00%    100.00% # Number of instructions fetched each cycle (Total)
system.cpu.fetch.rateDist::min_value                0                       # Number of instructions fetched each cycle (Total)
system.cpu.fetch.rateDist::max_value                4                       # Number of instructions fetched each cycle (Total)
system.cpu.fetch.rateDist::total              2587096                       # Number of instructions fetched each cycle (Total)
system.cpu.fp_regfile_reads                    118192                       # number of floating regfile reads
system.cpu.fp_regfile_writes                    64856                       # number of floating regfile writes
system.cpu.fuPool.fu_ticks_busy::IntALU(0)    218474800                       # Total ticks fu was busy
system.cpu.fuPool.fu_ticks_busy::IntALU(1)    218474400                       # Total ticks fu was busy
system.cpu.fuPool.fu_ticks_busy::IntALU(2)    218474400                       # Total ticks fu was busy
system.cpu.fuPool.fu_ticks_busy::IntALU(3)    218474400                       # Total ticks fu was busy
system.cpu.fuPool.fu_ticks_busy::IntALU(4)    218474400                       # Total ticks fu was busy
system.cpu.fuPool.fu_ticks_busy::IntALU(5)    218474400                       # Total ticks fu was busy
system.cpu.fuPool.fu_ticks_busy::IntMultDiv(0)      8840000                       # Total ticks fu was busy
system.cpu.fuPool.fu_ticks_busy::IntMultDiv(1)      8839600                       # Total ticks fu was busy
system.cpu.fuPool.fu_ticks_busy::FP_ALU(0)       552000                       # Total ticks fu was busy
system.cpu.fuPool.fu_ticks_busy::FP_ALU(1)       552000                       # Total ticks fu was busy
system.cpu.fuPool.fu_ticks_busy::FP_ALU(2)       551600                       # Total ticks fu was busy
system.cpu.fuPool.fu_ticks_busy::FP_ALU(3)       551600                       # Total ticks fu was busy
system.cpu.fuPool.fu_ticks_busy::FP_MultDiv(0)            0                       # Total ticks fu was busy
system.cpu.fuPool.fu_ticks_busy::FP_MultDiv(1)            0                       # Total ticks fu was busy
system.cpu.fuPool.fu_ticks_busy::SIMD_Unit(0)      4434000                       # Total ticks fu was busy
system.cpu.fuPool.fu_ticks_busy::SIMD_Unit(1)      4325600                       # Total ticks fu was busy
system.cpu.fuPool.fu_ticks_busy::SIMD_Unit(2)      4414000                       # Total ticks fu was busy
system.cpu.fuPool.fu_ticks_busy::SIMD_Unit(3)      4528800                       # Total ticks fu was busy
system.cpu.fuPool.fu_ticks_busy::PredALU(0)            0                       # Total ticks fu was busy
system.cpu.fuPool.fu_ticks_busy::RdWrPort(0)     78425200                       # Total ticks fu was busy
system.cpu.fuPool.fu_ticks_busy::RdWrPort(1)     78339200                       # Total ticks fu was busy
system.cpu.fuPool.fu_ticks_busy::RdWrPort(2)     78392400                       # Total ticks fu was busy
system.cpu.fuPool.fu_ticks_busy::RdWrPort(3)     78402400                       # Total ticks fu was busy
system.cpu.fuPool.fu_ticks_busy::IprPort(0)            0                       # Total ticks fu was busy
system.cpu.fuPool.fu_ticks_busy::total     1661995200                       # Total ticks fu was busy
system.cpu.icache.prefetcher.num_hwpf_issued            0                       # number of hwpf issued
system.cpu.icache.prefetcher.pfBufferHit            0                       # number of redundant prefetches already in prefetch queue
system.cpu.icache.prefetcher.pfIdentified            0                       # number of prefetch candidates identified
system.cpu.icache.prefetcher.pfInCache              0                       # number of redundant prefetches already in cache/mshr dropped
system.cpu.icache.prefetcher.pfRemovedFull            0                       # number of prefetches dropped due to prefetch queue size
system.cpu.icache.prefetcher.pfSpanPage             0                       # number of prefetches that crossed the page
system.cpu.idleCycles                          149845                       # Total number of cycles that the CPU has spent unscheduled due to idling
system.cpu.iew.branchMispredicts                29142                       # Number of branch mispredicts detected at execute
system.cpu.iew.exec_branches                   376258                       # Number of branches executed
system.cpu.iew.exec_nop                             0                       # number of nop insts executed
system.cpu.iew.exec_rate                     1.514851                       # Inst execution rate
system.cpu.iew.exec_refs                       770473                       # number of memory reference insts executed
system.cpu.iew.exec_stores                     191915                       # Number of stores executed
system.cpu.iew.exec_swp                             0                       # number of swp insts executed
system.cpu.iew.iewBlockCycles                  692791                       # Number of cycles IEW is blocking
system.cpu.iew.iewDispLoadInsts                609468                       # Number of dispatched load instructions
system.cpu.iew.iewDispNonSpecInsts                931                       # Number of dispatched non-speculative instructions
system.cpu.iew.iewDispSquashedInsts               503                       # Number of squashed instructions skipped by dispatch
system.cpu.iew.iewDispStoreInsts               202404                       # Number of dispatched store instructions
system.cpu.iew.iewDispatchedInsts             4502618                       # Number of instructions dispatched to IQ
system.cpu.iew.iewExecLoadInsts                578558                       # Number of load instructions executed
system.cpu.iew.iewExecSquashedInsts             35244                       # Number of squashed instructions skipped in execute
system.cpu.iew.iewExecutedInsts               4146059                       # Number of executed instructions
system.cpu.iew.iewIQFullEvents                   3358                       # Number of times the IQ has become full, causing a stall
system.cpu.iew.iewIdleCycles                        0                       # Number of cycles IEW is idle
system.cpu.iew.iewLSQFullEvents                  8122                       # Number of times the LSQ has become full, causing a stall
system.cpu.iew.iewSquashCycles                  24751                       # Number of cycles IEW is squashing
system.cpu.iew.iewUnblockCycles                 14386                       # Number of cycles IEW is unblocking
system.cpu.iew.lsq.thread0.blockedLoads             0                       # Number of blocked loads due to partial load-store forwarding
system.cpu.iew.lsq.thread0.cacheBlocked           607                       # Number of times an access to memory failed due to the cache being blocked
system.cpu.iew.lsq.thread0.forwLoads            40417                       # Number of loads that had data forwarded from stores
system.cpu.iew.lsq.thread0.ignoredResponses          260                       # Number of memory responses ignored because the instruction is squashed
system.cpu.iew.lsq.thread0.invAddrLoads             0                       # Number of loads ignored due to an invalid address
system.cpu.iew.lsq.thread0.invAddrSwpfs             0                       # Number of software prefetches ignored due to an invalid address
system.cpu.iew.lsq.thread0.memOrderViolation           80                       # Number of memory ordering violations
system.cpu.iew.lsq.thread0.rescheduledLoads            0                       # Number of loads that were rescheduled
system.cpu.iew.lsq.thread0.squashedLoads       117238                       # Number of loads squashed
system.cpu.iew.lsq.thread0.squashedStores        29867                       # Number of stores squashed
system.cpu.iew.memOrderViolationEvents             80                       # Number of memory order violations
system.cpu.iew.predictedNotTakenIncorrect        20695                       # Number of branches that were predicted not taken incorrectly
system.cpu.iew.predictedTakenIncorrect           8447                       # Number of branches that were predicted taken incorrectly
system.cpu.iew.wb_consumers                   5823188                       # num instructions consuming a value
system.cpu.iew.wb_count                       4122935                       # cumulative count of insts written-back
system.cpu.iew.wb_fanout                     0.566362                       # average fanout of values written-back
system.cpu.iew.wb_producers                   3298034                       # num instructions producing a value
system.cpu.iew.wb_rate                       1.506403                       # insts written-back per cycle
system.cpu.iew.wb_sent                        4130326                       # cumulative count of insts sent to commit
system.cpu.int_regfile_reads                  6428020                       # number of integer regfile reads
system.cpu.int_regfile_writes                 3567927                       # number of integer regfile writes
system.cpu.ipc                               0.759719                       # IPC: Instructions Per Cycle
system.cpu.ipc_total                         0.759719                       # IPC: Total IPC of All Threads
system.cpu.iq.FU_type_0::No_OpClass             26315      0.63%      0.63% # Type of FU issued
system.cpu.iq.FU_type_0::IntAlu               3277118     78.38%     79.00% # Type of FU issued
system.cpu.iq.FU_type_0::IntMult                 2341      0.06%     79.06% # Type of FU issued
system.cpu.iq.FU_type_0::IntDiv                 41858      1.00%     80.06% # Type of FU issued
system.cpu.iq.FU_type_0::FloatAdd                4294      0.10%     80.16% # Type of FU issued
system.cpu.iq.FU_type_0::FloatCmp                   0      0.00%     80.16% # Type of FU issued
system.cpu.iq.FU_type_0::FloatCvt                1224      0.03%     80.19% # Type of FU issued
system.cpu.iq.FU_type_0::FloatMult                  0      0.00%     80.19% # Type of FU issued
system.cpu.iq.FU_type_0::FloatMultAcc               0      0.00%     80.19% # Type of FU issued
system.cpu.iq.FU_type_0::FloatDiv                   0      0.00%     80.19% # Type of FU issued
system.cpu.iq.FU_type_0::FloatMisc                  0      0.00%     80.19% # Type of FU issued
system.cpu.iq.FU_type_0::FloatSqrt                  0      0.00%     80.19% # Type of FU issued
system.cpu.iq.FU_type_0::SimdAdd                 6794      0.16%     80.36% # Type of FU issued
system.cpu.iq.FU_type_0::SimdAddAcc                 0      0.00%     80.36% # Type of FU issued
system.cpu.iq.FU_type_0::SimdAlu                14703      0.35%     80.71% # Type of FU issued
system.cpu.iq.FU_type_0::SimdCmp                    0      0.00%     80.71% # Type of FU issued
system.cpu.iq.FU_type_0::SimdCvt                13716      0.33%     81.04% # Type of FU issued
system.cpu.iq.FU_type_0::SimdMisc                7028      0.17%     81.20% # Type of FU issued
system.cpu.iq.FU_type_0::SimdMult                   0      0.00%     81.20% # Type of FU issued
system.cpu.iq.FU_type_0::SimdMultAcc                0      0.00%     81.20% # Type of FU issued
system.cpu.iq.FU_type_0::SimdShift               2015      0.05%     81.25% # Type of FU issued
system.cpu.iq.FU_type_0::SimdShiftAcc               0      0.00%     81.25% # Type of FU issued
system.cpu.iq.FU_type_0::SimdDiv                    0      0.00%     81.25% # Type of FU issued
system.cpu.iq.FU_type_0::SimdSqrt                   0      0.00%     81.25% # Type of FU issued
system.cpu.iq.FU_type_0::SimdFloatAdd               0      0.00%     81.25% # Type of FU issued
system.cpu.iq.FU_type_0::SimdFloatAlu               0      0.00%     81.25% # Type of FU issued
system.cpu.iq.FU_type_0::SimdFloatCmp               0      0.00%     81.25% # Type of FU issued
system.cpu.iq.FU_type_0::SimdFloatCvt               0      0.00%     81.25% # Type of FU issued
system.cpu.iq.FU_type_0::SimdFloatDiv               0      0.00%     81.25% # Type of FU issued
system.cpu.iq.FU_type_0::SimdFloatMisc              0      0.00%     81.25% # Type of FU issued
system.cpu.iq.FU_type_0::SimdFloatMult              0      0.00%     81.25% # Type of FU issued
system.cpu.iq.FU_type_0::SimdFloatMultAcc            0      0.00%     81.25% # Type of FU issued
system.cpu.iq.FU_type_0::SimdFloatSqrt              0      0.00%     81.25% # Type of FU issued
system.cpu.iq.FU_type_0::SimdReduceAdd              0      0.00%     81.25% # Type of FU issued
system.cpu.iq.FU_type_0::SimdReduceAlu              0      0.00%     81.25% # Type of FU issued
system.cpu.iq.FU_type_0::SimdReduceCmp              0      0.00%     81.25% # Type of FU issued
system.cpu.iq.FU_type_0::SimdFloatReduceAdd            0      0.00%     81.25% # Type of FU issued
system.cpu.iq.FU_type_0::SimdFloatReduceCmp            0      0.00%     81.25% # Type of FU issued
system.cpu.iq.FU_type_0::SimdAes                    0      0.00%     81.25% # Type of FU issued
system.cpu.iq.FU_type_0::SimdAesMix                 0      0.00%     81.25% # Type of FU issued
system.cpu.iq.FU_type_0::SimdSha1Hash               0      0.00%     81.25% # Type of FU issued
system.cpu.iq.FU_type_0::SimdSha1Hash2              0      0.00%     81.25% # Type of FU issued
system.cpu.iq.FU_type_0::SimdSha256Hash             0      0.00%     81.25% # Type of FU issued
system.cpu.iq.FU_type_0::SimdSha256Hash2            0      0.00%     81.25% # Type of FU issued
system.cpu.iq.FU_type_0::SimdShaSigma2              0      0.00%     81.25% # Type of FU issued
system.cpu.iq.FU_type_0::SimdShaSigma3              0      0.00%     81.25% # Type of FU issued
system.cpu.iq.FU_type_0::SimdPredAlu                0      0.00%     81.25% # Type of FU issued
system.cpu.iq.FU_type_0::MemRead               564456     13.50%     94.75% # Type of FU issued
system.cpu.iq.FU_type_0::MemWrite              181355      4.34%     99.09% # Type of FU issued
system.cpu.iq.FU_type_0::FloatMemRead           24788      0.59%     99.68% # Type of FU issued
system.cpu.iq.FU_type_0::FloatMemWrite          13301      0.32%    100.00% # Type of FU issued
system.cpu.iq.FU_type_0::IprAccess                  0      0.00%    100.00% # Type of FU issued
system.cpu.iq.FU_type_0::InstPrefetch               0      0.00%    100.00% # Type of FU issued
system.cpu.iq.FU_type_0::total                4181306                       # Type of FU issued
system.cpu.iq.fp_alu_accesses                   88835                       # Number of floating point alu accesses
system.cpu.iq.fp_inst_queue_reads              178979                       # Number of floating instruction queue reads
system.cpu.iq.fp_inst_queue_wakeup_accesses        85374                       # Number of floating instruction queue wakeup accesses
system.cpu.iq.fp_inst_queue_writes             127942                       # Number of floating instruction queue writes
system.cpu.iq.fu_busy_cnt                           0                       # FU busy when requested
system.cpu.iq.fu_busy_rate                          0                       # FU busy rate (busy events/executed inst)
system.cpu.iq.fu_full::No_OpClass                   0                       # attempts to use FU when none available
system.cpu.iq.fu_full::IntAlu                       0                       # attempts to use FU when none available
system.cpu.iq.fu_full::IntMult                      0                       # attempts to use FU when none available
system.cpu.iq.fu_full::IntDiv                       0                       # attempts to use FU when none available
system.cpu.iq.fu_full::FloatAdd                     0                       # attempts to use FU when none available
system.cpu.iq.fu_full::FloatCmp                     0                       # attempts to use FU when none available
system.cpu.iq.fu_full::FloatCvt                     0                       # attempts to use FU when none available
system.cpu.iq.fu_full::FloatMult                    0                       # attempts to use FU when none available
system.cpu.iq.fu_full::FloatMultAcc                 0                       # attempts to use FU when none available
system.cpu.iq.fu_full::FloatDiv                     0                       # attempts to use FU when none available
system.cpu.iq.fu_full::FloatMisc                    0                       # attempts to use FU when none available
system.cpu.iq.fu_full::FloatSqrt                    0                       # attempts to use FU when none available
system.cpu.iq.fu_full::SimdAdd                      0                       # attempts to use FU when none available
system.cpu.iq.fu_full::SimdAddAcc                   0                       # attempts to use FU when none available
system.cpu.iq.fu_full::SimdAlu                      0                       # attempts to use FU when none available
system.cpu.iq.fu_full::SimdCmp                      0                       # attempts to use FU when none available
system.cpu.iq.fu_full::SimdCvt                      0                       # attempts to use FU when none available
system.cpu.iq.fu_full::SimdMisc                     0                       # attempts to use FU when none available
system.cpu.iq.fu_full::SimdMult                     0                       # attempts to use FU when none available
system.cpu.iq.fu_full::SimdMultAcc                  0                       # attempts to use FU when none available
system.cpu.iq.fu_full::SimdShift                    0                       # attempts to use FU when none available
system.cpu.iq.fu_full::SimdShiftAcc                 0                       # attempts to use FU when none available
system.cpu.iq.fu_full::SimdDiv                      0                       # attempts to use FU when none available
system.cpu.iq.fu_full::SimdSqrt                     0                       # attempts to use FU when none available
system.cpu.iq.fu_full::SimdFloatAdd                 0                       # attempts to use FU when none available
system.cpu.iq.fu_full::SimdFloatAlu                 0                       # attempts to use FU when none available
system.cpu.iq.fu_full::SimdFloatCmp                 0                       # attempts to use FU when none available
system.cpu.iq.fu_full::SimdFloatCvt                 0                       # attempts to use FU when none available
system.cpu.iq.fu_full::SimdFloatDiv                 0                       # attempts to use FU when none available
system.cpu.iq.fu_full::SimdFloatMisc                0                       # attempts to use FU when none available
system.cpu.iq.fu_full::SimdFloatMult                0                       # attempts to use FU when none available
system.cpu.iq.fu_full::SimdFloatMultAcc             0                       # attempts to use FU when none available
system.cpu.iq.fu_full::SimdFloatSqrt                0                       # attempts to use FU when none available
system.cpu.iq.fu_full::SimdReduceAdd                0                       # attempts to use FU when none available
system.cpu.iq.fu_full::SimdReduceAlu                0                       # attempts to use FU when none available
system.cpu.iq.fu_full::SimdReduceCmp                0                       # attempts to use FU when none available
system.cpu.iq.fu_full::SimdFloatReduceAdd            0                       # attempts to use FU when none available
system.cpu.iq.fu_full::SimdFloatReduceCmp            0                       # attempts to use FU when none available
system.cpu.iq.fu_full::SimdAes                      0                       # attempts to use FU when none available
system.cpu.iq.fu_full::SimdAesMix                   0                       # attempts to use FU when none available
system.cpu.iq.fu_full::SimdSha1Hash                 0                       # attempts to use FU when none available
system.cpu.iq.fu_full::SimdSha1Hash2                0                       # attempts to use FU when none available
system.cpu.iq.fu_full::SimdSha256Hash               0                       # attempts to use FU when none available
system.cpu.iq.fu_full::SimdSha256Hash2              0                       # attempts to use FU when none available
system.cpu.iq.fu_full::SimdShaSigma2                0                       # attempts to use FU when none available
system.cpu.iq.fu_full::SimdShaSigma3                0                       # attempts to use FU when none available
system.cpu.iq.fu_full::SimdPredAlu                  0                       # attempts to use FU when none available
system.cpu.iq.fu_full::MemRead                      0                       # attempts to use FU when none available
system.cpu.iq.fu_full::MemWrite                     0                       # attempts to use FU when none available
system.cpu.iq.fu_full::FloatMemRead                 0                       # attempts to use FU when none available
system.cpu.iq.fu_full::FloatMemWrite                0                       # attempts to use FU when none available
system.cpu.iq.fu_full::IprAccess                    0                       # attempts to use FU when none available
system.cpu.iq.fu_full::InstPrefetch                 0                       # attempts to use FU when none available
system.cpu.iq.int_alu_accesses                4066156                       # Number of integer alu accesses
system.cpu.iq.int_inst_queue_reads           10789290                       # Number of integer instruction queue reads
system.cpu.iq.int_inst_queue_wakeup_accesses      4037561                       # Number of integer instruction queue wakeup accesses
system.cpu.iq.int_inst_queue_writes           5267125                       # Number of integer instruction queue writes
system.cpu.iq.iqInstsAdded                    4501490                       # Number of instructions added to the IQ (excludes non-spec)
system.cpu.iq.iqInstsIssued                   4181306                       # Number of instructions issued
system.cpu.iq.iqNonSpecInstsAdded                1128                       # Number of non-speculative instructions added to the IQ
system.cpu.iq.iqSquashedInstsExamined          892370                       # Number of squashed instructions iterated over during squash; mainly for profiling
system.cpu.iq.iqSquashedInstsIssued             18564                       # Number of squashed instructions issued
system.cpu.iq.iqSquashedNonSpecRemoved            396                       # Number of squashed non-spec instructions that were removed
system.cpu.iq.iqSquashedOperandsExamined      1335650                       # Number of squashed operands that are examined and possibly removed from graph
system.cpu.iq.issued_per_cycle::samples       2587096                       # Number of insts issued each cycle
system.cpu.iq.issued_per_cycle::mean         1.616216                       # Number of insts issued each cycle
system.cpu.iq.issued_per_cycle::stdev        1.667724                       # Number of insts issued each cycle
system.cpu.iq.issued_per_cycle::underflows            0      0.00%      0.00% # Number of insts issued each cycle
system.cpu.iq.issued_per_cycle::0             1171324     45.28%     45.28% # Number of insts issued each cycle
system.cpu.iq.issued_per_cycle::1              178383      6.90%     52.17% # Number of insts issued each cycle
system.cpu.iq.issued_per_cycle::2              301607     11.66%     63.83% # Number of insts issued each cycle
system.cpu.iq.issued_per_cycle::3              343419     13.27%     77.10% # Number of insts issued each cycle
system.cpu.iq.issued_per_cycle::4              592363     22.90%    100.00% # Number of insts issued each cycle
system.cpu.iq.issued_per_cycle::overflows            0      0.00%    100.00% # Number of insts issued each cycle
system.cpu.iq.issued_per_cycle::min_value            0                       # Number of insts issued each cycle
system.cpu.iq.issued_per_cycle::max_value            4                       # Number of insts issued each cycle
system.cpu.iq.issued_per_cycle::total         2587096                       # Number of insts issued each cycle
system.cpu.iq.rate                           1.527730                       # Inst issue rate
system.cpu.iq.vec_alu_accesses                      0                       # Number of vector alu accesses
system.cpu.iq.vec_inst_queue_reads                  0                       # Number of vector instruction queue reads
system.cpu.iq.vec_inst_queue_wakeup_accesses            0                       # Number of vector instruction queue wakeup accesses
system.cpu.iq.vec_inst_queue_writes                 0                       # Number of vector instruction queue writes
system.cpu.itb.rdAccesses                           0                       # TLB accesses on read requests
system.cpu.itb.rdMisses                             0                       # TLB misses on read requests
system.cpu.itb.wrAccesses                      245566                       # TLB accesses on write requests
system.cpu.itb.wrMisses                           312                       # TLB misses on write requests
system.cpu.memDep0.conflictingLoads             13426                       # Number of conflicting loads.
system.cpu.memDep0.conflictingStores             4795                       # Number of conflicting stores.
system.cpu.memDep0.insertedLoads               609468                       # Number of loads inserted to the mem dependence unit.
system.cpu.memDep0.insertedStores              202404                       # Number of stores inserted to the mem dependence unit.
system.cpu.misc_regfile_reads                 1560550                       # number of misc regfile reads
system.cpu.misc_regfile_writes                    675                       # number of misc regfile writes
system.cpu.numCycles                          2736941                       # number of cpu cycles simulated
system.cpu.numWorkItemsCompleted                    0                       # number of work items this cpu completed
system.cpu.numWorkItemsStarted                      0                       # number of work items this cpu started
system.cpu.process.numSyscalls                     56                       # Number of system calls
system.cpu.rename.BlockCycles                  842326                       # Number of cycles rename is blocking
system.cpu.rename.CommittedMaps               4960027                       # Number of HB maps that are committed
system.cpu.rename.FullRegisterEvents              274                       # Number of times there has been no free registers
system.cpu.rename.IQFullEvents                  49185                       # Number of times rename has blocked due to IQ full
system.cpu.rename.IdleCycles                   346283                       # Number of cycles rename is idle
system.cpu.rename.LQFullEvents                  14561                       # Number of times rename has blocked due to LQ full
system.cpu.rename.ROBFullEvents                  5007                       # Number of times rename has blocked due to ROB full
system.cpu.rename.RenameLookups              12135218                       # Number of register rename lookups that rename has made
system.cpu.rename.RenamedInsts                4646844                       # Number of instructions processed by rename
system.cpu.rename.RenamedOperands             6367869                       # Number of destination operands rename has renamed
system.cpu.rename.RunCycles                   1175861                       # Number of cycles rename is running
system.cpu.rename.SQFullEvents                  76981                       # Number of times rename has blocked due to SQ full
system.cpu.rename.SquashCycles                  24751                       # Number of cycles rename is squashing
system.cpu.rename.UnblockCycles                178373                       # Number of cycles rename is unblocking
system.cpu.rename.UndoneMaps                  1407819                       # Number of HB maps that are undone due to squashing
system.cpu.rename.fp_rename_lookups            151834                       # Number of floating rename lookups
system.cpu.rename.int_rename_lookups          7387110                       # Number of integer rename lookups
system.cpu.rename.serializeStallCycles          19502                       # count of cycles rename stalled for serializing inst
system.cpu.rename.serializingInsts                865                       # count of serializing insts renamed
system.cpu.rename.skidInsts                    212630                       # count of insts added to the skid buffer
system.cpu.rename.tempSerializingInsts            910                       # count of temporary serializing insts renamed
system.cpu.rob.rob_reads                      6247321                       # The number of ROB reads
system.cpu.rob.rob_writes                     9250046                       # The number of ROB writes
system.cpu.timesIdled                            1469                       # Number of times that the entire CPU went into an idle state and unscheduled itself
system.l2bus.snoop_filter.hit_multi_requests            9                       # Number of requests hitting in the snoop filter with multiple (>1) holders of the requested data.
system.l2bus.snoop_filter.hit_multi_snoops            0                       # Number of snoops hitting in the snoop filter with multiple (>1) holders of the requested data.
system.l2bus.snoop_filter.hit_single_requests        18313                       # Number of requests hitting in the snoop filter with a single holder of the requested data.
system.l2bus.snoop_filter.hit_single_snoops          417                       # Number of snoops hitting in the snoop filter with a single holder of the requested data.
system.l2bus.snoop_filter.tot_requests          37906                       # Total number of requests made to the snoop filter.
system.l2bus.snoop_filter.tot_snoops              417                       # Total number of snoops made to the snoop filter.
system.l2cache.prefetcher.num_hwpf_issued          722                       # number of hwpf issued
system.l2cache.prefetcher.pfBufferHit               0                       # number of redundant prefetches already in prefetch queue
system.l2cache.prefetcher.pfIdentified            722                       # number of prefetch candidates identified
system.l2cache.prefetcher.pfInCache                 0                       # number of redundant prefetches already in cache/mshr dropped
system.l2cache.prefetcher.pfRemovedFull             0                       # number of prefetches dropped due to prefetch queue size
system.l2cache.prefetcher.pfSpanPage              102                       # number of prefetches that crossed the page
system.membus.snoop_filter.hit_multi_requests            0                       # Number of requests hitting in the snoop filter with multiple (>1) holders of the requested data.
system.membus.snoop_filter.hit_multi_snoops            0                       # Number of snoops hitting in the snoop filter with multiple (>1) holders of the requested data.
system.membus.snoop_filter.hit_single_requests         9318                       # Number of requests hitting in the snoop filter with a single holder of the requested data.
system.membus.snoop_filter.hit_single_snoops            0                       # Number of snoops hitting in the snoop filter with a single holder of the requested data.
system.membus.snoop_filter.tot_requests         22757                       # Total number of requests made to the snoop filter.
system.membus.snoop_filter.tot_snoops               0                       # Total number of snoops made to the snoop filter.
system.membus.pwrStateResidencyTicks::UNDEFINED   1094776000                       # Cumulative time (in ticks) in various power states
system.membus.trans_dist::ReadResp              12061                       # Transaction distribution
system.membus.trans_dist::WritebackDirty         1334                       # Transaction distribution
system.membus.trans_dist::CleanEvict             7984                       # Transaction distribution
system.membus.trans_dist::ReadExReq              1378                       # Transaction distribution
system.membus.trans_dist::ReadExResp             1378                       # Transaction distribution
system.membus.trans_dist::ReadSharedReq         12061                       # Transaction distribution
system.membus.pkt_count_system.l2cache.mem_side::system.mem_ctrl.port        36196                       # Packet count per connected master and slave (bytes)
system.membus.pkt_count_system.l2cache.mem_side::total        36196                       # Packet count per connected master and slave (bytes)
system.membus.pkt_count::total                  36196                       # Packet count per connected master and slave (bytes)
system.membus.pkt_size_system.l2cache.mem_side::system.mem_ctrl.port       945472                       # Cumulative packet size per connected master and slave (bytes)
system.membus.pkt_size_system.l2cache.mem_side::total       945472                       # Cumulative packet size per connected master and slave (bytes)
system.membus.pkt_size::total                  945472                       # Cumulative packet size per connected master and slave (bytes)
system.membus.snoops                                0                       # Total snoops (count)
system.membus.snoopTraffic                          0                       # Total snoop traffic (bytes)
system.membus.snoop_fanout::samples             13439                       # Request fanout histogram
system.membus.snoop_fanout::mean                    0                       # Request fanout histogram
system.membus.snoop_fanout::stdev                   0                       # Request fanout histogram
system.membus.snoop_fanout::underflows              0      0.00%      0.00% # Request fanout histogram
system.membus.snoop_fanout::0                   13439    100.00%    100.00% # Request fanout histogram
system.membus.snoop_fanout::1                       0      0.00%    100.00% # Request fanout histogram
system.membus.snoop_fanout::overflows               0      0.00%    100.00% # Request fanout histogram
system.membus.snoop_fanout::min_value               0                       # Request fanout histogram
system.membus.snoop_fanout::max_value               0                       # Request fanout histogram
system.membus.snoop_fanout::total               13439                       # Request fanout histogram
system.membus.reqLayer2.occupancy            11266443                       # Layer occupancy (ticks)
system.membus.reqLayer2.utilization               1.0                       # Layer utilization (%)
system.membus.respLayer0.occupancy           29167257                       # Layer occupancy (ticks)
system.membus.respLayer0.utilization              2.7                       # Layer utilization (%)
system.l2bus.pwrStateResidencyTicks::UNDEFINED   1094776000                       # Cumulative time (in ticks) in various power states
system.l2bus.trans_dist::ReadResp               17487                       # Transaction distribution
system.l2bus.trans_dist::WritebackDirty          4122                       # Transaction distribution
system.l2bus.trans_dist::CleanEvict             23592                       # Transaction distribution
system.l2bus.trans_dist::HardPFReq                990                       # Transaction distribution
system.l2bus.trans_dist::ReadExReq               2106                       # Transaction distribution
system.l2bus.trans_dist::ReadExResp              2106                       # Transaction distribution
system.l2bus.trans_dist::ReadSharedReq          17487                       # Transaction distribution
system.l2bus.pkt_count_system.cpu.icache.mem_side::system.l2cache.cpu_side         7560                       # Packet count per connected master and slave (bytes)
system.l2bus.pkt_count_system.cpu.dcache.mem_side::system.l2cache.cpu_side        49937                       # Packet count per connected master and slave (bytes)
system.l2bus.pkt_count::total                   57497                       # Packet count per connected master and slave (bytes)
system.l2bus.pkt_size_system.cpu.icache.mem_side::system.l2cache.cpu_side       166656                       # Cumulative packet size per connected master and slave (bytes)
system.l2bus.pkt_size_system.cpu.dcache.mem_side::system.l2cache.cpu_side      1265600                       # Cumulative packet size per connected master and slave (bytes)
system.l2bus.pkt_size::total                  1432256                       # Cumulative packet size per connected master and slave (bytes)
system.l2bus.snoops                             10393                       # Total snoops (count)
system.l2bus.snoopTraffic                       85504                       # Total snoop traffic (bytes)
system.l2bus.snoop_fanout::samples              29984                       # Request fanout histogram
system.l2bus.snoop_fanout::mean              0.014208                       # Request fanout histogram
system.l2bus.snoop_fanout::stdev             0.118348                       # Request fanout histogram
system.l2bus.snoop_fanout::underflows               0      0.00%      0.00% # Request fanout histogram
system.l2bus.snoop_fanout::0                    29558     98.58%     98.58% # Request fanout histogram
system.l2bus.snoop_fanout::1                      426      1.42%    100.00% # Request fanout histogram
system.l2bus.snoop_fanout::2                        0      0.00%    100.00% # Request fanout histogram
system.l2bus.snoop_fanout::overflows                0      0.00%    100.00% # Request fanout histogram
system.l2bus.snoop_fanout::min_value                0                       # Request fanout histogram
system.l2bus.snoop_fanout::max_value                1                       # Request fanout histogram
system.l2bus.snoop_fanout::total                29984                       # Request fanout histogram
system.l2bus.respLayer1.occupancy            20384799                       # Layer occupancy (ticks)
system.l2bus.respLayer1.utilization               1.9                       # Layer utilization (%)
system.l2bus.reqLayer0.occupancy             18809150                       # Layer occupancy (ticks)
system.l2bus.reqLayer0.utilization                1.7                       # Layer utilization (%)
system.l2bus.respLayer0.occupancy             3127200                       # Layer occupancy (ticks)
system.l2bus.respLayer0.utilization               0.3                       # Layer utilization (%)
system.clk_domain.clock                           400                       # Clock period in ticks
system.clk_domain.voltage_domain.voltage            1                       # Voltage in Volts
system.cpu.pwrStateResidencyTicks::ON      1094776000                       # Cumulative time (in ticks) in various power states
system.cpu.icache.pwrStateResidencyTicks::UNDEFINED   1094776000                       # Cumulative time (in ticks) in various power states
system.cpu.icache.demand_hits::.cpu.inst       242217                       # number of demand (read+write) hits
system.cpu.icache.demand_hits::total           242217                       # number of demand (read+write) hits
system.cpu.icache.overall_hits::.cpu.inst       242217                       # number of overall hits
system.cpu.icache.overall_hits::total          242217                       # number of overall hits
system.cpu.icache.demand_misses::.cpu.inst         3273                       # number of demand (read+write) misses
system.cpu.icache.demand_misses::total           3273                       # number of demand (read+write) misses
system.cpu.icache.overall_misses::.cpu.inst         3273                       # number of overall misses
system.cpu.icache.overall_misses::total          3273                       # number of overall misses
system.cpu.icache.demand_miss_latency::.cpu.inst    166107200                       # number of demand (read+write) miss cycles
system.cpu.icache.demand_miss_latency::total    166107200                       # number of demand (read+write) miss cycles
system.cpu.icache.overall_miss_latency::.cpu.inst    166107200                       # number of overall miss cycles
system.cpu.icache.overall_miss_latency::total    166107200                       # number of overall miss cycles
system.cpu.icache.demand_accesses::.cpu.inst       245490                       # number of demand (read+write) accesses
system.cpu.icache.demand_accesses::total       245490                       # number of demand (read+write) accesses
system.cpu.icache.overall_accesses::.cpu.inst       245490                       # number of overall (read+write) accesses
system.cpu.icache.overall_accesses::total       245490                       # number of overall (read+write) accesses
system.cpu.icache.demand_miss_rate::.cpu.inst     0.013333                       # miss rate for demand accesses
system.cpu.icache.demand_miss_rate::total     0.013333                       # miss rate for demand accesses
system.cpu.icache.overall_miss_rate::.cpu.inst     0.013333                       # miss rate for overall accesses
system.cpu.icache.overall_miss_rate::total     0.013333                       # miss rate for overall accesses
system.cpu.icache.demand_avg_miss_latency::.cpu.inst 50750.748549                       # average overall miss latency
system.cpu.icache.demand_avg_miss_latency::total 50750.748549                       # average overall miss latency
system.cpu.icache.overall_avg_miss_latency::.cpu.inst 50750.748549                       # average overall miss latency
system.cpu.icache.overall_avg_miss_latency::total 50750.748549                       # average overall miss latency
system.cpu.icache.blocked_cycles::no_mshrs           61                       # number of cycles access was blocked
system.cpu.icache.blocked_cycles::no_targets            0                       # number of cycles access was blocked
system.cpu.icache.blocked::no_mshrs                 3                       # number of cycles access was blocked
system.cpu.icache.blocked::no_targets               0                       # number of cycles access was blocked
system.cpu.icache.avg_blocked_cycles::no_mshrs    20.333333                       # average number of cycles each access was blocked
system.cpu.icache.avg_blocked_cycles::no_targets          nan                       # average number of cycles each access was blocked
system.cpu.icache.demand_mshr_hits::.cpu.inst          667                       # number of demand (read+write) MSHR hits
system.cpu.icache.demand_mshr_hits::total          667                       # number of demand (read+write) MSHR hits
system.cpu.icache.overall_mshr_hits::.cpu.inst          667                       # number of overall MSHR hits
system.cpu.icache.overall_mshr_hits::total          667                       # number of overall MSHR hits
system.cpu.icache.demand_mshr_misses::.cpu.inst         2606                       # number of demand (read+write) MSHR misses
system.cpu.icache.demand_mshr_misses::total         2606                       # number of demand (read+write) MSHR misses
system.cpu.icache.overall_mshr_misses::.cpu.inst         2606                       # number of overall MSHR misses
system.cpu.icache.overall_mshr_misses::total         2606                       # number of overall MSHR misses
system.cpu.icache.demand_mshr_miss_latency::.cpu.inst    132932800                       # number of demand (read+write) MSHR miss cycles
system.cpu.icache.demand_mshr_miss_latency::total    132932800                       # number of demand (read+write) MSHR miss cycles
system.cpu.icache.overall_mshr_miss_latency::.cpu.inst    132932800                       # number of overall MSHR miss cycles
system.cpu.icache.overall_mshr_miss_latency::total    132932800                       # number of overall MSHR miss cycles
system.cpu.icache.demand_mshr_miss_rate::.cpu.inst     0.010616                       # mshr miss rate for demand accesses
system.cpu.icache.demand_mshr_miss_rate::total     0.010616                       # mshr miss rate for demand accesses
system.cpu.icache.overall_mshr_miss_rate::.cpu.inst     0.010616                       # mshr miss rate for overall accesses
system.cpu.icache.overall_mshr_miss_rate::total     0.010616                       # mshr miss rate for overall accesses
system.cpu.icache.demand_avg_mshr_miss_latency::.cpu.inst 51010.283960                       # average overall mshr miss latency
system.cpu.icache.demand_avg_mshr_miss_latency::total 51010.283960                       # average overall mshr miss latency
system.cpu.icache.overall_avg_mshr_miss_latency::.cpu.inst 51010.283960                       # average overall mshr miss latency
system.cpu.icache.overall_avg_mshr_miss_latency::total 51010.283960                       # average overall mshr miss latency
system.cpu.icache.replacements                   2350                       # number of replacements
system.cpu.icache.ReadReq_hits::.cpu.inst       242217                       # number of ReadReq hits
system.cpu.icache.ReadReq_hits::total          242217                       # number of ReadReq hits
system.cpu.icache.ReadReq_misses::.cpu.inst         3273                       # number of ReadReq misses
system.cpu.icache.ReadReq_misses::total          3273                       # number of ReadReq misses
system.cpu.icache.ReadReq_miss_latency::.cpu.inst    166107200                       # number of ReadReq miss cycles
system.cpu.icache.ReadReq_miss_latency::total    166107200                       # number of ReadReq miss cycles
system.cpu.icache.ReadReq_accesses::.cpu.inst       245490                       # number of ReadReq accesses(hits+misses)
system.cpu.icache.ReadReq_accesses::total       245490                       # number of ReadReq accesses(hits+misses)
system.cpu.icache.ReadReq_miss_rate::.cpu.inst     0.013333                       # miss rate for ReadReq accesses
system.cpu.icache.ReadReq_miss_rate::total     0.013333                       # miss rate for ReadReq accesses
system.cpu.icache.ReadReq_avg_miss_latency::.cpu.inst 50750.748549                       # average ReadReq miss latency
system.cpu.icache.ReadReq_avg_miss_latency::total 50750.748549                       # average ReadReq miss latency
system.cpu.icache.ReadReq_mshr_hits::.cpu.inst          667                       # number of ReadReq MSHR hits
system.cpu.icache.ReadReq_mshr_hits::total          667                       # number of ReadReq MSHR hits
system.cpu.icache.ReadReq_mshr_misses::.cpu.inst         2606                       # number of ReadReq MSHR misses
system.cpu.icache.ReadReq_mshr_misses::total         2606                       # number of ReadReq MSHR misses
system.cpu.icache.ReadReq_mshr_miss_latency::.cpu.inst    132932800                       # number of ReadReq MSHR miss cycles
system.cpu.icache.ReadReq_mshr_miss_latency::total    132932800                       # number of ReadReq MSHR miss cycles
system.cpu.icache.ReadReq_mshr_miss_rate::.cpu.inst     0.010616                       # mshr miss rate for ReadReq accesses
system.cpu.icache.ReadReq_mshr_miss_rate::total     0.010616                       # mshr miss rate for ReadReq accesses
system.cpu.icache.ReadReq_avg_mshr_miss_latency::.cpu.inst 51010.283960                       # average ReadReq mshr miss latency
system.cpu.icache.ReadReq_avg_mshr_miss_latency::total 51010.283960                       # average ReadReq mshr miss latency
system.cpu.icache.prefetcher.pwrStateResidencyTicks::UNDEFINED   1094776000                       # Cumulative time (in ticks) in various power states
system.cpu.icache.tags.pwrStateResidencyTicks::UNDEFINED   1094776000                       # Cumulative time (in ticks) in various power states
system.cpu.icache.tags.tagsinuse           253.469414                       # Cycle average of tags in use
system.cpu.icache.tags.total_refs              206786                       # Total number of references to valid blocks.
system.cpu.icache.tags.sampled_refs              2350                       # Sample count of references to valid blocks.
system.cpu.icache.tags.avg_refs             87.994043                       # Average number of references to valid blocks.
system.cpu.icache.tags.warmup_cycle             66400                       # Cycle when the warmup percentage was hit.
system.cpu.icache.tags.occ_blocks::.cpu.inst   253.469414                       # Average occupied blocks per requestor
system.cpu.icache.tags.occ_percent::.cpu.inst     0.990115                       # Average percentage of cache occupancy
system.cpu.icache.tags.occ_percent::total     0.990115                       # Average percentage of cache occupancy
system.cpu.icache.tags.occ_task_id_blocks::1024          256                       # Occupied blocks per task id
system.cpu.icache.tags.age_task_id_blocks_1024::0           74                       # Occupied blocks per task id
system.cpu.icache.tags.age_task_id_blocks_1024::1          148                       # Occupied blocks per task id
system.cpu.icache.tags.age_task_id_blocks_1024::2           28                       # Occupied blocks per task id
system.cpu.icache.tags.age_task_id_blocks_1024::3            6                       # Occupied blocks per task id
system.cpu.icache.tags.occ_task_id_percent::1024            1                       # Percentage of cache occupancy per task id
system.cpu.icache.tags.tag_accesses            493586                       # Number of tag accesses
system.cpu.icache.tags.data_accesses           493586                       # Number of data accesses
system.cpu.dtb.walker.pwrStateResidencyTicks::UNDEFINED   1094776000                       # Cumulative time (in ticks) in various power states
system.cpu.interrupts.clk_domain.clock           6400                       # Clock period in ticks
system.cpu.itb.walker.pwrStateResidencyTicks::UNDEFINED   1094776000                       # Cumulative time (in ticks) in various power states
system.cpu.dcache.pwrStateResidencyTicks::UNDEFINED   1094776000                       # Cumulative time (in ticks) in various power states
system.cpu.dcache.demand_hits::.cpu.data       672422                       # number of demand (read+write) hits
system.cpu.dcache.demand_hits::total           672422                       # number of demand (read+write) hits
system.cpu.dcache.overall_hits::.cpu.data       672422                       # number of overall hits
system.cpu.dcache.overall_hits::total          672422                       # number of overall hits
system.cpu.dcache.demand_misses::.cpu.data        35187                       # number of demand (read+write) misses
system.cpu.dcache.demand_misses::total          35187                       # number of demand (read+write) misses
system.cpu.dcache.overall_misses::.cpu.data        35187                       # number of overall misses
system.cpu.dcache.overall_misses::total         35187                       # number of overall misses
system.cpu.dcache.demand_miss_latency::.cpu.data   1712409200                       # number of demand (read+write) miss cycles
system.cpu.dcache.demand_miss_latency::total   1712409200                       # number of demand (read+write) miss cycles
system.cpu.dcache.overall_miss_latency::.cpu.data   1712409200                       # number of overall miss cycles
system.cpu.dcache.overall_miss_latency::total   1712409200                       # number of overall miss cycles
system.cpu.dcache.demand_accesses::.cpu.data       707609                       # number of demand (read+write) accesses
system.cpu.dcache.demand_accesses::total       707609                       # number of demand (read+write) accesses
system.cpu.dcache.overall_accesses::.cpu.data       707609                       # number of overall (read+write) accesses
system.cpu.dcache.overall_accesses::total       707609                       # number of overall (read+write) accesses
system.cpu.dcache.demand_miss_rate::.cpu.data     0.049727                       # miss rate for demand accesses
system.cpu.dcache.demand_miss_rate::total     0.049727                       # miss rate for demand accesses
system.cpu.dcache.overall_miss_rate::.cpu.data     0.049727                       # miss rate for overall accesses
system.cpu.dcache.overall_miss_rate::total     0.049727                       # miss rate for overall accesses
system.cpu.dcache.demand_avg_miss_latency::.cpu.data 48665.961861                       # average overall miss latency
system.cpu.dcache.demand_avg_miss_latency::total 48665.961861                       # average overall miss latency
system.cpu.dcache.overall_avg_miss_latency::.cpu.data 48665.961861                       # average overall miss latency
system.cpu.dcache.overall_avg_miss_latency::total 48665.961861                       # average overall miss latency
system.cpu.dcache.blocked_cycles::no_mshrs        29751                       # number of cycles access was blocked
system.cpu.dcache.blocked_cycles::no_targets          178                       # number of cycles access was blocked
system.cpu.dcache.blocked::no_mshrs               751                       # number of cycles access was blocked
system.cpu.dcache.blocked::no_targets               3                       # number of cycles access was blocked
system.cpu.dcache.avg_blocked_cycles::no_mshrs    39.615180                       # average number of cycles each access was blocked
system.cpu.dcache.avg_blocked_cycles::no_targets    59.333333                       # average number of cycles each access was blocked
system.cpu.dcache.unused_prefetches              1818                       # number of HardPF blocks evicted w/o reference
system.cpu.dcache.writebacks::.writebacks         2788                       # number of writebacks
system.cpu.dcache.writebacks::total              2788                       # number of writebacks
system.cpu.dcache.demand_mshr_hits::.cpu.data        22513                       # number of demand (read+write) MSHR hits
system.cpu.dcache.demand_mshr_hits::total        22513                       # number of demand (read+write) MSHR hits
system.cpu.dcache.overall_mshr_hits::.cpu.data        22513                       # number of overall MSHR hits
system.cpu.dcache.overall_mshr_hits::total        22513                       # number of overall MSHR hits
system.cpu.dcache.demand_mshr_misses::.cpu.data        12674                       # number of demand (read+write) MSHR misses
system.cpu.dcache.demand_mshr_misses::total        12674                       # number of demand (read+write) MSHR misses
system.cpu.dcache.overall_mshr_misses::.cpu.data        12674                       # number of overall MSHR misses
system.cpu.dcache.overall_mshr_misses::.cpu.dcache.prefetcher         4313                       # number of overall MSHR misses
system.cpu.dcache.overall_mshr_misses::total        16987                       # number of overall MSHR misses
system.cpu.dcache.demand_mshr_miss_latency::.cpu.data    583082800                       # number of demand (read+write) MSHR miss cycles
system.cpu.dcache.demand_mshr_miss_latency::total    583082800                       # number of demand (read+write) MSHR miss cycles
system.cpu.dcache.overall_mshr_miss_latency::.cpu.data    583082800                       # number of overall MSHR miss cycles
system.cpu.dcache.overall_mshr_miss_latency::.cpu.dcache.prefetcher    245446644                       # number of overall MSHR miss cycles
system.cpu.dcache.overall_mshr_miss_latency::total    828529444                       # number of overall MSHR miss cycles
system.cpu.dcache.demand_mshr_miss_rate::.cpu.data     0.017911                       # mshr miss rate for demand accesses
system.cpu.dcache.demand_mshr_miss_rate::total     0.017911                       # mshr miss rate for demand accesses
system.cpu.dcache.overall_mshr_miss_rate::.cpu.data     0.017911                       # mshr miss rate for overall accesses
system.cpu.dcache.overall_mshr_miss_rate::.cpu.dcache.prefetcher          inf                       # mshr miss rate for overall accesses
system.cpu.dcache.overall_mshr_miss_rate::total     0.024006                       # mshr miss rate for overall accesses
system.cpu.dcache.demand_avg_mshr_miss_latency::.cpu.data 46006.217453                       # average overall mshr miss latency
system.cpu.dcache.demand_avg_mshr_miss_latency::total 46006.217453                       # average overall mshr miss latency
system.cpu.dcache.overall_avg_mshr_miss_latency::.cpu.data 46006.217453                       # average overall mshr miss latency
system.cpu.dcache.overall_avg_mshr_miss_latency::.cpu.dcache.prefetcher 56908.565732                       # average overall mshr miss latency
system.cpu.dcache.overall_avg_mshr_miss_latency::total 48774.324130                       # average overall mshr miss latency
system.cpu.dcache.replacements                  15963                       # number of replacements
system.cpu.dcache.ReadReq_hits::.cpu.data       502025                       # number of ReadReq hits
system.cpu.dcache.ReadReq_hits::total          502025                       # number of ReadReq hits
system.cpu.dcache.ReadReq_misses::.cpu.data        33042                       # number of ReadReq misses
system.cpu.dcache.ReadReq_misses::total         33042                       # number of ReadReq misses
system.cpu.dcache.ReadReq_miss_latency::.cpu.data   1605068800                       # number of ReadReq miss cycles
system.cpu.dcache.ReadReq_miss_latency::total   1605068800                       # number of ReadReq miss cycles
system.cpu.dcache.ReadReq_accesses::.cpu.data       535067                       # number of ReadReq accesses(hits+misses)
system.cpu.dcache.ReadReq_accesses::total       535067                       # number of ReadReq accesses(hits+misses)
system.cpu.dcache.ReadReq_miss_rate::.cpu.data     0.061753                       # miss rate for ReadReq accesses
system.cpu.dcache.ReadReq_miss_rate::total     0.061753                       # miss rate for ReadReq accesses
system.cpu.dcache.ReadReq_avg_miss_latency::.cpu.data 48576.623691                       # average ReadReq miss latency
system.cpu.dcache.ReadReq_avg_miss_latency::total 48576.623691                       # average ReadReq miss latency
system.cpu.dcache.ReadReq_mshr_hits::.cpu.data        22474                       # number of ReadReq MSHR hits
system.cpu.dcache.ReadReq_mshr_hits::total        22474                       # number of ReadReq MSHR hits
system.cpu.dcache.ReadReq_mshr_misses::.cpu.data        10568                       # number of ReadReq MSHR misses
system.cpu.dcache.ReadReq_mshr_misses::total        10568                       # number of ReadReq MSHR misses
system.cpu.dcache.ReadReq_mshr_miss_latency::.cpu.data    478727600                       # number of ReadReq MSHR miss cycles
system.cpu.dcache.ReadReq_mshr_miss_latency::total    478727600                       # number of ReadReq MSHR miss cycles
system.cpu.dcache.ReadReq_mshr_miss_rate::.cpu.data     0.019751                       # mshr miss rate for ReadReq accesses
system.cpu.dcache.ReadReq_mshr_miss_rate::total     0.019751                       # mshr miss rate for ReadReq accesses
system.cpu.dcache.ReadReq_avg_mshr_miss_latency::.cpu.data 45299.735049                       # average ReadReq mshr miss latency
system.cpu.dcache.ReadReq_avg_mshr_miss_latency::total 45299.735049                       # average ReadReq mshr miss latency
system.cpu.dcache.WriteReq_hits::.cpu.data       170397                       # number of WriteReq hits
system.cpu.dcache.WriteReq_hits::total         170397                       # number of WriteReq hits
system.cpu.dcache.WriteReq_misses::.cpu.data         2145                       # number of WriteReq misses
system.cpu.dcache.WriteReq_misses::total         2145                       # number of WriteReq misses
system.cpu.dcache.WriteReq_miss_latency::.cpu.data    107340400                       # number of WriteReq miss cycles
system.cpu.dcache.WriteReq_miss_latency::total    107340400                       # number of WriteReq miss cycles
system.cpu.dcache.WriteReq_accesses::.cpu.data       172542                       # number of WriteReq accesses(hits+misses)
system.cpu.dcache.WriteReq_accesses::total       172542                       # number of WriteReq accesses(hits+misses)
system.cpu.dcache.WriteReq_miss_rate::.cpu.data     0.012432                       # miss rate for WriteReq accesses
system.cpu.dcache.WriteReq_miss_rate::total     0.012432                       # miss rate for WriteReq accesses
system.cpu.dcache.WriteReq_avg_miss_latency::.cpu.data 50042.144522                       # average WriteReq miss latency
system.cpu.dcache.WriteReq_avg_miss_latency::total 50042.144522                       # average WriteReq miss latency
system.cpu.dcache.WriteReq_mshr_hits::.cpu.data           39                       # number of WriteReq MSHR hits
system.cpu.dcache.WriteReq_mshr_hits::total           39                       # number of WriteReq MSHR hits
system.cpu.dcache.WriteReq_mshr_misses::.cpu.data         2106                       # number of WriteReq MSHR misses
system.cpu.dcache.WriteReq_mshr_misses::total         2106                       # number of WriteReq MSHR misses
system.cpu.dcache.WriteReq_mshr_miss_latency::.cpu.data    104355200                       # number of WriteReq MSHR miss cycles
[...]
system.l2cache.overall_mshr_miss_rate::.cpu.data     0.520782                       # mshr miss rate for overall accesses
system.l2cache.overall_mshr_miss_rate::.cpu.dcache.prefetcher     0.784810                       # mshr miss rate for overall accesses
system.l2cache.overall_mshr_miss_rate::.l2cache.prefetcher          inf                       # mshr miss rate for overall accesses
system.l2cache.overall_mshr_miss_rate::total     0.319853                       # mshr miss rate for overall accesses
system.l2cache.demand_avg_mshr_miss_latency::.cpu.inst 59486.124402                       # average overall mshr miss latency
system.l2cache.demand_avg_mshr_miss_latency::.cpu.data 58567.136150                       # average overall mshr miss latency
system.l2cache.demand_avg_mshr_miss_latency::.cpu.dcache.prefetcher 58437.725806                       # average overall mshr miss latency
system.l2cache.demand_avg_mshr_miss_latency::total 59109.868687                       # average overall mshr miss latency
system.l2cache.overall_avg_mshr_miss_latency::.cpu.inst 59486.124402                       # average overall mshr miss latency
system.l2cache.overall_avg_mshr_miss_latency::.cpu.data 58567.136150                       # average overall mshr miss latency
system.l2cache.overall_avg_mshr_miss_latency::.cpu.dcache.prefetcher 58437.725806                       # average overall mshr miss latency
system.l2cache.overall_avg_mshr_miss_latency::.l2cache.prefetcher        59732                       # average overall mshr miss latency
system.l2cache.overall_avg_mshr_miss_latency::total 59112.550287                       # average overall mshr miss latency
system.l2cache.replacements                       703                       # number of replacements
system.l2cache.WritebackDirty_hits::.writebacks          166                       # number of WritebackDirty hits
system.l2cache.WritebackDirty_hits::total          166                       # number of WritebackDirty hits
system.l2cache.WritebackDirty_accesses::.writebacks          166                       # number of WritebackDirty accesses(hits+misses)
system.l2cache.WritebackDirty_accesses::total          166                       # number of WritebackDirty accesses(hits+misses)
system.l2cache.CleanEvict_mshr_misses::.writebacks           22                       # number of CleanEvict MSHR misses
system.l2cache.CleanEvict_mshr_misses::total           22                       # number of CleanEvict MSHR misses
system.l2cache.CleanEvict_mshr_miss_rate::.writebacks          inf                       # mshr miss rate for CleanEvict accesses
system.l2cache.CleanEvict_mshr_miss_rate::total          inf                       # mshr miss rate for CleanEvict accesses
system.l2cache.HardPFReq_mshr_misses::.l2cache.prefetcher            3                       # number of HardPFReq MSHR misses
system.l2cache.HardPFReq_mshr_misses::total            3                       # number of HardPFReq MSHR misses
system.l2cache.HardPFReq_mshr_miss_latency::.l2cache.prefetcher       179196                       # number of HardPFReq MSHR miss cycles
system.l2cache.HardPFReq_mshr_miss_latency::total       179196                       # number of HardPFReq MSHR miss cycles
system.l2cache.HardPFReq_mshr_miss_rate::.l2cache.prefetcher          inf                       # mshr miss rate for HardPFReq accesses
system.l2cache.HardPFReq_mshr_miss_rate::total          inf                       # mshr miss rate for HardPFReq accesses
system.l2cache.HardPFReq_avg_mshr_miss_latency::.l2cache.prefetcher        59732                       # average HardPFReq mshr miss latency
system.l2cache.HardPFReq_avg_mshr_miss_latency::total        59732                       # average HardPFReq mshr miss latency
system.l2cache.UpgradeReq_hits::.cpu.data            2                       # number of UpgradeReq hits
system.l2cache.UpgradeReq_hits::total               2                       # number of UpgradeReq hits
system.l2cache.UpgradeReq_accesses::.cpu.data            2                       # number of UpgradeReq accesses(hits+misses)
system.l2cache.UpgradeReq_accesses::total            2                       # number of UpgradeReq accesses(hits+misses)
system.l2cache.ReadExReq_hits::.cpu.data           14                       # number of ReadExReq hits
system.l2cache.ReadExReq_hits::total               14                       # number of ReadExReq hits
system.l2cache.ReadExReq_misses::.cpu.data           57                       # number of ReadExReq misses
system.l2cache.ReadExReq_misses::total             57                       # number of ReadExReq misses
system.l2cache.ReadExReq_miss_latency::.cpu.data      3784000                       # number of ReadExReq miss cycles
system.l2cache.ReadExReq_miss_latency::total      3784000                       # number of ReadExReq miss cycles
system.l2cache.ReadExReq_accesses::.cpu.data           71                       # number of ReadExReq accesses(hits+misses)
system.l2cache.ReadExReq_accesses::total           71                       # number of ReadExReq accesses(hits+misses)
system.l2cache.ReadExReq_miss_rate::.cpu.data     0.802817                       # miss rate for ReadExReq accesses
system.l2cache.ReadExReq_miss_rate::total     0.802817                       # miss rate for ReadExReq accesses
system.l2cache.ReadExReq_avg_miss_latency::.cpu.data 66385.964912                       # average ReadExReq miss latency
system.l2cache.ReadExReq_avg_miss_latency::total 66385.964912                       # average ReadExReq miss latency
system.l2cache.ReadExReq_mshr_misses::.cpu.data           57                       # number of ReadExReq MSHR misses
system.l2cache.ReadExReq_mshr_misses::total           57                       # number of ReadExReq MSHR misses
system.l2cache.ReadExReq_mshr_miss_latency::.cpu.data      3328000                       # number of ReadExReq MSHR miss cycles
system.l2cache.ReadExReq_mshr_miss_latency::total      3328000                       # number of ReadExReq MSHR miss cycles
system.l2cache.ReadExReq_mshr_miss_rate::.cpu.data     0.802817                       # mshr miss rate for ReadExReq accesses
system.l2cache.ReadExReq_mshr_miss_rate::total     0.802817                       # mshr miss rate for ReadExReq accesses
system.l2cache.ReadExReq_avg_mshr_miss_latency::.cpu.data 58385.964912                       # average ReadExReq mshr miss latency
system.l2cache.ReadExReq_avg_mshr_miss_latency::total 58385.964912                       # average ReadExReq mshr miss latency
system.l2cache.ReadSharedReq_hits::.cpu.inst         1270                       # number of ReadSharedReq hits
system.l2cache.ReadSharedReq_hits::.cpu.data          181                       # number of ReadSharedReq hits
system.l2cache.ReadSharedReq_hits::.cpu.dcache.prefetcher           17                       # number of ReadSharedReq hits
system.l2cache.ReadSharedReq_hits::total         1468                       # number of ReadSharedReq hits
system.l2cache.ReadSharedReq_misses::.cpu.inst          418                       # number of ReadSharedReq misses
system.l2cache.ReadSharedReq_misses::.cpu.data          157                       # number of ReadSharedReq misses
system.l2cache.ReadSharedReq_misses::.cpu.dcache.prefetcher           62                       # number of ReadSharedReq misses
system.l2cache.ReadSharedReq_misses::total          637                       # number of ReadSharedReq misses
system.l2cache.ReadSharedReq_miss_latency::.cpu.inst     28201200                       # number of ReadSharedReq miss cycles
system.l2cache.ReadSharedReq_miss_latency::.cpu.data     10451200                       # number of ReadSharedReq miss cycles
system.l2cache.ReadSharedReq_miss_latency::.cpu.dcache.prefetcher      4119139                       # number of ReadSharedReq miss cycles
system.l2cache.ReadSharedReq_miss_latency::total     42771539                       # number of ReadSharedReq miss cycles
system.l2cache.ReadSharedReq_accesses::.cpu.inst         1688                       # number of ReadSharedReq accesses(hits+misses)
system.l2cache.ReadSharedReq_accesses::.cpu.data          338                       # number of ReadSharedReq accesses(hits+misses)
system.l2cache.ReadSharedReq_accesses::.cpu.dcache.prefetcher           79                       # number of ReadSharedReq accesses(hits+misses)
system.l2cache.ReadSharedReq_accesses::total         2105                       # number of ReadSharedReq accesses(hits+misses)
system.l2cache.ReadSharedReq_miss_rate::.cpu.inst     0.247630                       # miss rate for ReadSharedReq accesses
system.l2cache.ReadSharedReq_miss_rate::.cpu.data     0.464497                       # miss rate for ReadSharedReq accesses
system.l2cache.ReadSharedReq_miss_rate::.cpu.dcache.prefetcher     0.784810                       # miss rate for ReadSharedReq accesses
system.l2cache.ReadSharedReq_miss_rate::total     0.302613                       # miss rate for ReadSharedReq accesses
system.l2cache.ReadSharedReq_avg_miss_latency::.cpu.inst 67466.985646                       # average ReadSharedReq miss latency
system.l2cache.ReadSharedReq_avg_miss_latency::.cpu.data 66568.152866                       # average ReadSharedReq miss latency
system.l2cache.ReadSharedReq_avg_miss_latency::.cpu.dcache.prefetcher 66437.725806                       # average ReadSharedReq miss latency
system.l2cache.ReadSharedReq_avg_miss_latency::total 67145.273155                       # average ReadSharedReq miss latency
system.l2cache.ReadSharedReq_mshr_hits::.cpu.data            1                       # number of ReadSharedReq MSHR hits
system.l2cache.ReadSharedReq_mshr_hits::total            1                       # number of ReadSharedReq MSHR hits
system.l2cache.ReadSharedReq_mshr_misses::.cpu.inst          418                       # number of ReadSharedReq MSHR misses
system.l2cache.ReadSharedReq_mshr_misses::.cpu.data          156                       # number of ReadSharedReq MSHR misses
system.l2cache.ReadSharedReq_mshr_misses::.cpu.dcache.prefetcher           62                       # number of ReadSharedReq MSHR misses
system.l2cache.ReadSharedReq_mshr_misses::total          636                       # number of ReadSharedReq MSHR misses
system.l2cache.ReadSharedReq_mshr_miss_latency::.cpu.inst     24865200                       # number of ReadSharedReq MSHR miss cycles
system.l2cache.ReadSharedReq_mshr_miss_latency::.cpu.data      9146800                       # number of ReadSharedReq MSHR miss cycles
system.l2cache.ReadSharedReq_mshr_miss_latency::.cpu.dcache.prefetcher      3623139                       # number of ReadSharedReq MSHR miss cycles
system.l2cache.ReadSharedReq_mshr_miss_latency::total     37635139                       # number of ReadSharedReq MSHR miss cycles
system.l2cache.ReadSharedReq_mshr_miss_rate::.cpu.inst     0.247630                       # mshr miss rate for ReadSharedReq accesses
system.l2cache.ReadSharedReq_mshr_miss_rate::.cpu.data     0.461538                       # mshr miss rate for ReadSharedReq accesses
system.l2cache.ReadSharedReq_mshr_miss_rate::.cpu.dcache.prefetcher     0.784810                       # mshr miss rate for ReadSharedReq accesses
system.l2cache.ReadSharedReq_mshr_miss_rate::total     0.302138                       # mshr miss rate for ReadSharedReq accesses
system.l2cache.ReadSharedReq_avg_mshr_miss_latency::.cpu.inst 59486.124402                       # average ReadSharedReq mshr miss latency
system.l2cache.ReadSharedReq_avg_mshr_miss_latency::.cpu.data 58633.333333                       # average ReadSharedReq mshr miss latency
system.l2cache.ReadSharedReq_avg_mshr_miss_latency::.cpu.dcache.prefetcher 58437.725806                       # average ReadSharedReq mshr miss latency
system.l2cache.ReadSharedReq_avg_mshr_miss_latency::total 59174.746855                       # average ReadSharedReq mshr miss latency
system.l2cache.prefetcher.pwrStateResidencyTicks::UNDEFINED    219193600                       # Cumulative time (in ticks) in various power states
system.l2cache.tags.pwrStateResidencyTicks::UNDEFINED    219193600                       # Cumulative time (in ticks) in various power states
system.l2cache.tags.tagsinuse                    4096                       # Cycle average of tags in use
system.l2cache.tags.total_refs                  16844                       # Total number of references to valid blocks.
system.l2cache.tags.sampled_refs                 4799                       # Sample count of references to valid blocks.
system.l2cache.tags.avg_refs                 3.509898                       # Average number of references to valid blocks.
system.l2cache.tags.warmup_cycle                    0                       # Cycle when the warmup percentage was hit.
system.l2cache.tags.occ_blocks::.writebacks    35.582884                       # Average occupied blocks per requestor
system.l2cache.tags.occ_blocks::.cpu.inst  1122.984902                       # Average occupied blocks per requestor
system.l2cache.tags.occ_blocks::.cpu.data  1893.724297                       # Average occupied blocks per requestor
system.l2cache.tags.occ_blocks::.cpu.dcache.prefetcher   900.182381                       # Average occupied blocks per requestor
system.l2cache.tags.occ_blocks::.l2cache.prefetcher   143.525537                       # Average occupied blocks per requestor
system.l2cache.tags.occ_percent::.writebacks     0.008687                       # Average percentage of cache occupancy
system.l2cache.tags.occ_percent::.cpu.inst     0.274166                       # Average percentage of cache occupancy
system.l2cache.tags.occ_percent::.cpu.data     0.462335                       # Average percentage of cache occupancy
system.l2cache.tags.occ_percent::.cpu.dcache.prefetcher     0.219771                       # Average percentage of cache occupancy
system.l2cache.tags.occ_percent::.l2cache.prefetcher     0.035040                       # Average percentage of cache occupancy
system.l2cache.tags.occ_percent::total              1                       # Average percentage of cache occupancy
system.l2cache.tags.occ_task_id_blocks::1022          957                       # Occupied blocks per task id
system.l2cache.tags.occ_task_id_blocks::1024         3139                       # Occupied blocks per task id
system.l2cache.tags.age_task_id_blocks_1022::0            9                       # Occupied blocks per task id
system.l2cache.tags.age_task_id_blocks_1022::1            4                       # Occupied blocks per task id
system.l2cache.tags.age_task_id_blocks_1022::2          896                       # Occupied blocks per task id
system.l2cache.tags.age_task_id_blocks_1022::3           48                       # Occupied blocks per task id
system.l2cache.tags.age_task_id_blocks_1024::0          171                       # Occupied blocks per task id
system.l2cache.tags.age_task_id_blocks_1024::1           63                       # Occupied blocks per task id
system.l2cache.tags.age_task_id_blocks_1024::2         2668                       # Occupied blocks per task id
system.l2cache.tags.age_task_id_blocks_1024::3          237                       # Occupied blocks per task id
system.l2cache.tags.occ_task_id_percent::1022     0.233643                       # Percentage of cache occupancy per task id
system.l2cache.tags.occ_task_id_percent::1024     0.766357                       # Percentage of cache occupancy per task id
system.l2cache.tags.tag_accesses                35487                       # Number of tag accesses
system.l2cache.tags.data_accesses               35487                       # Number of data accesses
system.mem_ctrl.pwrStateResidencyTicks::UNDEFINED    219193600                       # Cumulative time (in ticks) in various power states
system.mem_ctrl.bytes_read::.cpu.inst           26688                       # Number of bytes read from this memory
system.mem_ctrl.bytes_read::.cpu.data           13632                       # Number of bytes read from this memory
system.mem_ctrl.bytes_read::.cpu.dcache.prefetcher         3968                       # Number of bytes read from this memory
system.mem_ctrl.bytes_read::.l2cache.prefetcher          192                       # Number of bytes read from this memory
system.mem_ctrl.bytes_read::total               44480                       # Number of bytes read from this memory
system.mem_ctrl.bytes_inst_read::.cpu.inst        26688                       # Number of instructions bytes read from this memory
system.mem_ctrl.bytes_inst_read::total          26688                       # Number of instructions bytes read from this memory
system.mem_ctrl.bytes_written::.writebacks         3392                       # Number of bytes written to this memory
system.mem_ctrl.bytes_written::total             3392                       # Number of bytes written to this memory
system.mem_ctrl.num_reads::.cpu.inst              417                       # Number of read requests responded to by this memory
system.mem_ctrl.num_reads::.cpu.data              213                       # Number of read requests responded to by this memory
system.mem_ctrl.num_reads::.cpu.dcache.prefetcher           62                       # Number of read requests responded to by this memory
system.mem_ctrl.num_reads::.l2cache.prefetcher            3                       # Number of read requests responded to by this memory
system.mem_ctrl.num_reads::total                  695                       # Number of read requests responded to by this memory
system.mem_ctrl.num_writes::.writebacks            53                       # Number of write requests responded to by this memory
system.mem_ctrl.num_writes::total                  53                       # Number of write requests responded to by this memory
system.mem_ctrl.bw_read::.cpu.inst          121755380                       # Total read bandwidth from this memory (bytes/s)
system.mem_ctrl.bw_read::.cpu.data           62191597                       # Total read bandwidth from this memory (bytes/s)
system.mem_ctrl.bw_read::.cpu.dcache.prefetcher     18102718                       # Total read bandwidth from this memory (bytes/s)
system.mem_ctrl.bw_read::.l2cache.prefetcher       875938                       # Total read bandwidth from this memory (bytes/s)
system.mem_ctrl.bw_read::total              202925633                       # Total read bandwidth from this memory (bytes/s)
system.mem_ctrl.bw_inst_read::.cpu.inst     121755380                       # Instruction read bandwidth from this memory (bytes/s)
system.mem_ctrl.bw_inst_read::total         121755380                       # Instruction read bandwidth from this memory (bytes/s)
system.mem_ctrl.bw_write::.writebacks        15474904                       # Write bandwidth from this memory (bytes/s)
system.mem_ctrl.bw_write::total              15474904                       # Write bandwidth from this memory (bytes/s)
system.mem_ctrl.bw_total::.writebacks        15474904                       # Total bandwidth to/from this memory (bytes/s)
system.mem_ctrl.bw_total::.cpu.inst         121755380                       # Total bandwidth to/from this memory (bytes/s)
system.mem_ctrl.bw_total::.cpu.data          62191597                       # Total bandwidth to/from this memory (bytes/s)
system.mem_ctrl.bw_total::.cpu.dcache.prefetcher     18102718                       # Total bandwidth to/from this memory (bytes/s)
system.mem_ctrl.bw_total::.l2cache.prefetcher       875938                       # Total bandwidth to/from this memory (bytes/s)
system.mem_ctrl.bw_total::total             218400537                       # Total bandwidth to/from this memory (bytes/s)

---------- End Simulation Statistics   ----------
