
---------- Begin Simulation Statistics ----------
final_tick                                 4773944400                       # Number of ticks from beginning of simulation (restored from checkpoints and never reset)
host_inst_rate                                 102298                       # Simulator instruction rate (inst/s)
host_mem_usage                                4407960                       # Number of bytes of host memory used
host_op_rate                                   179809                       # Simulator op (including micro ops) rate (op/s)
host_seconds                                    48.94                       # Real time elapsed on the host
host_tick_rate                               97555254                       # Simulator tick rate (ticks/s)
sim_freq                                 1000000000000                       # Frequency of simulated ticks
sim_insts                                     5006034                       # Number of instructions simulated
sim_ops                                       8799071                       # Number of ops (including micro ops) simulated
sim_seconds                                  0.004774                       # Number of seconds simulated
sim_ticks                                  4773944400                       # Number of ticks simulated
system.cpu.branchPred.BTBCorrect                    0                       # Number of correct BTB predictions (this stat may not work properly.
system.cpu.branchPred.BTBHitPct              0.000000                       # BTB Hit Percentage
system.cpu.branchPred.BTBHits                       0                       # Number of BTB hits
system.cpu.branchPred.BTBLookups               850035                       # Number of BTB lookups
system.cpu.branchPred.RASInCorrect                 79                       # Number of incorrect RAS predictions.
system.cpu.branchPred.condIncorrect             28194                       # Number of conditional branches incorrect
system.cpu.branchPred.condPredicted            874832                       # Number of conditional branches predicted
system.cpu.branchPred.indirectHits             634107                       # Number of indirect target hits.
system.cpu.branchPred.indirectLookups          850035                       # Number of indirect predictor lookups.
system.cpu.branchPred.indirectMisses           215928                       # Number of indirect misses.
system.cpu.branchPred.lookups                  913456                       # Number of BP lookups
system.cpu.branchPred.usedRAS                   18776                       # Number of times the RAS was used to get a target.
system.cpu.branchPredindirectMispredicted        13321                       # Number of mispredicted indirect branches.
system.cpu.cc_regfile_reads                   4302271                       # number of cc regfile reads
system.cpu.cc_regfile_writes                  4787475                       # number of cc regfile writes
system.cpu.commit.amos                              0                       # Number of atomic instructions committed
system.cpu.commit.branchMispredicts             28284                       # The number of times a branch was mispredicted
system.cpu.commit.branches                     630420                       # Number of branches committed
system.cpu.commit.bw_lim_events               1492560                       # number cycles where commit BW limit reached
system.cpu.commit.commitNonSpecStalls            1770                       # The number of times commit has been forced to stall to communicate backwards
system.cpu.commit.commitSquashedInsts         3087540                       # The number of squashed insts skipped by commit
system.cpu.commit.committedInsts              5006034                       # Number of instructions committed
system.cpu.commit.committedOps                8799071                       # Number of ops (including micro ops) committed
system.cpu.commit.committed_per_cycle::samples     10940287                       # Number of insts commited each cycle
system.cpu.commit.committed_per_cycle::mean     0.804282                       # Number of insts commited each cycle
system.cpu.commit.committed_per_cycle::stdev     1.436327                       # Number of insts commited each cycle
system.cpu.commit.committed_per_cycle::underflows            0      0.00%      0.00% # Number of insts commited each cycle
system.cpu.commit.committed_per_cycle::0      7678303     70.18%     70.18% # Number of insts commited each cycle
system.cpu.commit.committed_per_cycle::1      1119285     10.23%     80.41% # Number of insts commited each cycle
system.cpu.commit.committed_per_cycle::2       240871      2.20%     82.62% # Number of insts commited each cycle
system.cpu.commit.committed_per_cycle::3       409268      3.74%     86.36% # Number of insts commited each cycle
system.cpu.commit.committed_per_cycle::4      1492560     13.64%    100.00% # Number of insts commited each cycle
system.cpu.commit.committed_per_cycle::overflows            0      0.00%    100.00% # Number of insts commited each cycle
system.cpu.commit.committed_per_cycle::min_value            0                       # Number of insts commited each cycle
system.cpu.commit.committed_per_cycle::max_value            4                       # Number of insts commited each cycle
system.cpu.commit.committed_per_cycle::total     10940287                       # Number of insts commited each cycle
system.cpu.commit.fp_insts                     259571                       # Number of committed floating point instructions.
system.cpu.commit.function_calls                12752                       # Number of function calls committed.
system.cpu.commit.int_insts                   8742542                       # Number of committed integer instructions.
system.cpu.commit.loads                       1370324                       # Number of loads committed
system.cpu.commit.membars                          17                       # Number of memory barriers committed
system.cpu.commit.op_class_0::No_OpClass        20436      0.23%      0.23% # Class of committed instruction
system.cpu.commit.op_class_0::IntAlu          6276939     71.34%     71.57% # Class of committed instruction
system.cpu.commit.op_class_0::IntMult             832      0.01%     71.58% # Class of committed instruction
system.cpu.commit.op_class_0::IntDiv            36808      0.42%     72.00% # Class of committed instruction
system.cpu.commit.op_class_0::FloatAdd           2896      0.03%     72.03% # Class of committed instruction
system.cpu.commit.op_class_0::FloatCmp              0      0.00%     72.03% # Class of committed instruction
system.cpu.commit.op_class_0::FloatCvt           1280      0.01%     72.04% # Class of committed instruction
system.cpu.commit.op_class_0::FloatMult             0      0.00%     72.04% # Class of committed instruction
system.cpu.commit.op_class_0::FloatMultAcc            0      0.00%     72.04% # Class of committed instruction
system.cpu.commit.op_class_0::FloatDiv              0      0.00%     72.04% # Class of committed instruction
system.cpu.commit.op_class_0::FloatMisc             0      0.00%     72.04% # Class of committed instruction
system.cpu.commit.op_class_0::FloatSqrt             0      0.00%     72.04% # Class of committed instruction
system.cpu.commit.op_class_0::SimdAdd            6294      0.07%     72.12% # Class of committed instruction
system.cpu.commit.op_class_0::SimdAddAcc            0      0.00%     72.12% # Class of committed instruction
system.cpu.commit.op_class_0::SimdAlu           11376      0.13%     72.24% # Class of committed instruction
system.cpu.commit.op_class_0::SimdCmp               0      0.00%     72.24% # Class of committed instruction
system.cpu.commit.op_class_0::SimdCvt           12314      0.14%     72.38% # Class of committed instruction
system.cpu.commit.op_class_0::SimdMisc           6631      0.08%     72.46% # Class of committed instruction
system.cpu.commit.op_class_0::SimdMult              0      0.00%     72.46% # Class of committed instruction
system.cpu.commit.op_class_0::SimdMultAcc            0      0.00%     72.46% # Class of committed instruction
system.cpu.commit.op_class_0::SimdShift          1370      0.02%     72.48% # Class of committed instruction
system.cpu.commit.op_class_0::SimdShiftAcc            0      0.00%     72.48% # Class of committed instruction
system.cpu.commit.op_class_0::SimdDiv               0      0.00%     72.48% # Class of committed instruction
system.cpu.commit.op_class_0::SimdSqrt              0      0.00%     72.48% # Class of committed instruction
system.cpu.commit.op_class_0::SimdFloatAdd            0      0.00%     72.48% # Class of committed instruction
system.cpu.commit.op_class_0::SimdFloatAlu            0      0.00%     72.48% # Class of committed instruction
system.cpu.commit.op_class_0::SimdFloatCmp            0      0.00%     72.48% # Class of committed instruction
system.cpu.commit.op_class_0::SimdFloatCvt            0      0.00%     72.48% # Class of committed instruction
system.cpu.commit.op_class_0::SimdFloatDiv            0      0.00%     72.48% # Class of committed instruction
system.cpu.commit.op_class_0::SimdFloatMisc            0      0.00%     72.48% # Class of committed instruction
system.cpu.commit.op_class_0::SimdFloatMult            0      0.00%     72.48% # Class of committed instruction
system.cpu.commit.op_class_0::SimdFloatMultAcc            0      0.00%     72.48% # Class of committed instruction
system.cpu.commit.op_class_0::SimdFloatSqrt            0      0.00%     72.48% # Class of committed instruction
system.cpu.commit.op_class_0::SimdReduceAdd            0      0.00%     72.48% # Class of committed instruction
system.cpu.commit.op_class_0::SimdReduceAlu            0      0.00%     72.48% # Class of committed instruction
system.cpu.commit.op_class_0::SimdReduceCmp            0      0.00%     72.48% # Class of committed instruction
system.cpu.commit.op_class_0::SimdFloatReduceAdd            0      0.00%     72.48% # Class of committed instruction
system.cpu.commit.op_class_0::SimdFloatReduceCmp            0      0.00%     72.48% # Class of committed instruction
system.cpu.commit.op_class_0::SimdAes               0      0.00%     72.48% # Class of committed instruction
system.cpu.commit.op_class_0::SimdAesMix            0      0.00%     72.48% # Class of committed instruction
system.cpu.commit.op_class_0::SimdSha1Hash            0      0.00%     72.48% # Class of committed instruction
system.cpu.commit.op_class_0::SimdSha1Hash2            0      0.00%     72.48% # Class of committed instruction
system.cpu.commit.op_class_0::SimdSha256Hash            0      0.00%     72.48% # Class of committed instruction
system.cpu.commit.op_class_0::SimdSha256Hash2            0      0.00%     72.48% # Class of committed instruction
system.cpu.commit.op_class_0::SimdShaSigma2            0      0.00%     72.48% # Class of committed instruction
system.cpu.commit.op_class_0::SimdShaSigma3            0      0.00%     72.48% # Class of committed instruction
system.cpu.commit.op_class_0::SimdPredAlu            0      0.00%     72.48% # Class of committed instruction
system.cpu.commit.op_class_0::MemRead         1258434     14.30%     86.78% # Class of committed instruction
system.cpu.commit.op_class_0::MemWrite         946908     10.76%     97.54% # Class of committed instruction
system.cpu.commit.op_class_0::FloatMemRead       111890      1.27%     98.81% # Class of committed instruction
system.cpu.commit.op_class_0::FloatMemWrite       104663      1.19%    100.00% # Class of committed instruction
system.cpu.commit.op_class_0::IprAccess             0      0.00%    100.00% # Class of committed instruction
system.cpu.commit.op_class_0::InstPrefetch            0      0.00%    100.00% # Class of committed instruction
system.cpu.commit.op_class_0::total           8799071                       # Class of committed instruction
system.cpu.commit.refs                        2421895                       # Number of memory references committed
system.cpu.commit.swp_count                         0                       # Number of s/w prefetches committed
system.cpu.commit.vec_insts                         0                       # Number of committed Vector instructions.
system.cpu.committedInsts                     5006034                       # Number of Instructions Simulated
system.cpu.committedOps                       8799071                       # Number of Ops (including micro ops) Simulated
system.cpu.cpi                               2.384095                       # CPI: Cycles Per Instruction
system.cpu.cpi_total                         2.384095                       # CPI: Total CPI of All Threads
system.cpu.dcache.prefetcher.num_hwpf_issued        59504                       # number of hwpf issued
system.cpu.dcache.prefetcher.pfBufferHit       129243                       # number of redundant prefetches already in prefetch queue
system.cpu.dcache.prefetcher.pfIdentified       205988                       # number of prefetch candidates identified
system.cpu.dcache.prefetcher.pfInCache              0                       # number of redundant prefetches already in cache/mshr dropped
system.cpu.dcache.prefetcher.pfRemovedFull            0                       # number of prefetches dropped due to prefetch queue size
system.cpu.dcache.prefetcher.pfSpanPage         22040                       # number of prefetches that crossed the page
system.cpu.decode.BlockedCycles               7312774                       # Number of cycles decode is blocked
system.cpu.decode.DecodedInsts               14219907                       # Number of instructions handled by decode
system.cpu.decode.IdleCycles                   724181                       # Number of cycles decode is idle
system.cpu.decode.RunCycles                   3065031                       # Number of cycles decode is running
system.cpu.decode.SquashCycles                  72153                       # Number of cycles decode is squashing
system.cpu.decode.UnblockCycles                586705                       # Number of cycles decode is unblocking
system.cpu.dtb.rdAccesses                     2366421                       # TLB accesses on read requests
system.cpu.dtb.rdMisses                          2618                       # TLB misses on read requests
system.cpu.dtb.wrAccesses                     2298176                       # TLB accesses on write requests
system.cpu.dtb.wrMisses                          1042                       # TLB misses on write requests
system.cpu.fetch.Branches                      913456                       # Number of branches that fetch encountered
system.cpu.fetch.CacheLines                    686142                       # Number of cache lines fetched
system.cpu.fetch.Cycles                      10903651                       # Number of cycles fetch has run and was not squashing or blocked
system.cpu.fetch.IcacheSquashes                  7168                       # Number of outstanding Icache misses that were squashed
system.cpu.fetch.IcacheWaitRetryStallCycles           14                       # Number of stall cycles due to full MSHR
system.cpu.fetch.Insts                        7672339                       # Number of instructions fetch has processed
system.cpu.fetch.MiscStallCycles                  116                       # Number of cycles fetch has spent waiting on interrupts, or bad addresses, or out of MSHRs
system.cpu.fetch.PendingQuiesceStallCycles           13                       # Number of stall cycles due to pending quiesce instructions
system.cpu.fetch.PendingTrapStallCycles           611                       # Number of stall cycles due to pending traps
system.cpu.fetch.SquashCycles                  144306                       # Number of cycles fetch has spent squashing
system.cpu.fetch.branchRate                  0.076537                       # Number of branch fetches per cycle
system.cpu.fetch.icacheStallCycles             784286                       # Number of cycles fetch is stalled on an Icache miss
system.cpu.fetch.predictedBranches             652883                       # Number of branches that fetch has predicted taken
system.cpu.fetch.rate                        0.642851                       # Number of inst fetches per cycle
system.cpu.fetch.rateDist::samples           11760844                       # Number of instructions fetched each cycle (Total)
system.cpu.fetch.rateDist::mean              1.263721                       # Number of instructions fetched each cycle (Total)
system.cpu.fetch.rateDist::stdev             1.792422                       # Number of instructions fetched each cycle (Total)
system.cpu.fetch.rateDist::underflows               0      0.00%      0.00% # Number of instructions fetched each cycle (Total)
system.cpu.fetch.rateDist::0                  7654661     65.09%     65.09% # Number of instructions fetched each cycle (Total)
system.cpu.fetch.rateDist::1                   215675      1.83%     66.92% # Number of instructions fetched each cycle (Total)
system.cpu.fetch.rateDist::2                   255053      2.17%     69.09% # Number of instructions fetched each cycle (Total)
system.cpu.fetch.rateDist::3                   405175      3.45%     72.53% # Number of instructions fetched each cycle (Total)
system.cpu.fetch.rateDist::4                  3230280     27.47%    100.00% # Number of instructions fetched each cycle (Total)
system.cpu.fetch.rateDist::overflows                0      0.00%    100.00% # Number of instructions fetched each cycle (Total)
system.cpu.fetch.rateDist::min_value                0                       # Number of instructions fetched each cycle (Total)
system.cpu.fetch.rateDist::max_value                4                       # Number of instructions fetched each cycle (Total)
system.cpu.fetch.rateDist::total             11760844                       # Number of instructions fetched each cycle (Total)
system.cpu.fp_regfile_reads                   1031055                       # number of floating regfile reads
system.cpu.fp_regfile_writes                   817137                       # number of floating regfile writes
system.cpu.fuPool.fu_ticks_busy::IntALU(0)    526452800                       # Total ticks fu was busy
system.cpu.fuPool.fu_ticks_busy::IntALU(1)    526452800                       # Total ticks fu was busy
system.cpu.fuPool.fu_ticks_busy::IntALU(2)    526452800                       # Total ticks fu was busy
system.cpu.fuPool.fu_ticks_busy::IntALU(3)    526452800                       # Total ticks fu was busy
system.cpu.fuPool.fu_ticks_busy::IntALU(4)    526452800                       # Total ticks fu was busy
system.cpu.fuPool.fu_ticks_busy::IntALU(5)    526452400                       # Total ticks fu was busy
system.cpu.fuPool.fu_ticks_busy::IntMultDiv(0)      8294000                       # Total ticks fu was busy
system.cpu.fuPool.fu_ticks_busy::IntMultDiv(1)      8294000                       # Total ticks fu was busy
system.cpu.fuPool.fu_ticks_busy::FP_ALU(0)       582400                       # Total ticks fu was busy
system.cpu.fuPool.fu_ticks_busy::FP_ALU(1)       582400                       # Total ticks fu was busy
system.cpu.fuPool.fu_ticks_busy::FP_ALU(2)       582400                       # Total ticks fu was busy
system.cpu.fuPool.fu_ticks_busy::FP_ALU(3)       582400                       # Total ticks fu was busy
system.cpu.fuPool.fu_ticks_busy::FP_MultDiv(0)            0                       # Total ticks fu was busy
system.cpu.fuPool.fu_ticks_busy::FP_MultDiv(1)            0                       # Total ticks fu was busy
system.cpu.fuPool.fu_ticks_busy::SIMD_Unit(0)      4452800                       # Total ticks fu was busy
system.cpu.fuPool.fu_ticks_busy::SIMD_Unit(1)      4605200                       # Total ticks fu was busy
system.cpu.fuPool.fu_ticks_busy::SIMD_Unit(2)      4596000                       # Total ticks fu was busy
system.cpu.fuPool.fu_ticks_busy::SIMD_Unit(3)      4441600                       # Total ticks fu was busy
system.cpu.fuPool.fu_ticks_busy::PredALU(0)            0                       # Total ticks fu was busy
system.cpu.fuPool.fu_ticks_busy::RdWrPort(0)    472278000                       # Total ticks fu was busy
system.cpu.fuPool.fu_ticks_busy::RdWrPort(1)    473503600                       # Total ticks fu was busy
system.cpu.fuPool.fu_ticks_busy::RdWrPort(2)    473004400                       # Total ticks fu was busy
system.cpu.fuPool.fu_ticks_busy::RdWrPort(3)    473379200                       # Total ticks fu was busy
system.cpu.fuPool.fu_ticks_busy::IprPort(0)            0                       # Total ticks fu was busy
system.cpu.fuPool.fu_ticks_busy::total     5087894800                       # Total ticks fu was busy
system.cpu.icache.prefetcher.num_hwpf_issued            0                       # number of hwpf issued
system.cpu.icache.prefetcher.pfBufferHit            0                       # number of redundant prefetches already in prefetch queue
system.cpu.icache.prefetcher.pfIdentified            0                       # number of prefetch candidates identified
system.cpu.icache.prefetcher.pfInCache              0                       # number of redundant prefetches already in cache/mshr dropped
system.cpu.icache.prefetcher.pfRemovedFull            0                       # number of prefetches dropped due to prefetch queue size
system.cpu.icache.prefetcher.pfSpanPage             0                       # number of prefetches that crossed the page
system.cpu.idleCycles                          174018                       # Total number of cycles that the CPU has spent unscheduled due to idling
system.cpu.iew.branchMispredicts                36632                       # Number of branch mispredicts detected at execute
system.cpu.iew.exec_branches                   775657                       # Number of branches executed
system.cpu.iew.exec_nop                             0                       # number of nop insts executed
system.cpu.iew.exec_rate                     1.092642                       # Inst execution rate
system.cpu.iew.exec_refs                      4667155                       # number of memory reference insts executed
system.cpu.iew.exec_stores                    2298168                       # Number of stores executed
system.cpu.iew.exec_swp                             0                       # number of swp insts executed
system.cpu.iew.iewBlockCycles                 1395225                       # Number of cycles IEW is blocking
system.cpu.iew.iewDispLoadInsts               2443022                       # Number of dispatched load instructions
system.cpu.iew.iewDispNonSpecInsts               1490                       # Number of dispatched non-speculative instructions
system.cpu.iew.iewDispSquashedInsts              1100                       # Number of squashed instructions skipped by dispatch
system.cpu.iew.iewDispStoreInsts              2344602                       # Number of dispatched store instructions
system.cpu.iew.iewDispatchedInsts            13543524                       # Number of instructions dispatched to IQ
system.cpu.iew.iewExecLoadInsts               2368987                       # Number of load instructions executed
system.cpu.iew.iewExecSquashedInsts            130084                       # Number of squashed instructions skipped in execute
system.cpu.iew.iewExecutedInsts              13040534                       # Number of executed instructions
system.cpu.iew.iewIQFullEvents                   4280                       # Number of times the IQ has become full, causing a stall
system.cpu.iew.iewIdleCycles                        0                       # Number of cycles IEW is idle
system.cpu.iew.iewLSQFullEvents                 78737                       # Number of times the LSQ has become full, causing a stall
system.cpu.iew.iewSquashCycles                  72153                       # Number of cycles IEW is squashing
system.cpu.iew.iewUnblockCycles                 83180                       # Number of cycles IEW is unblocking
system.cpu.iew.lsq.thread0.blockedLoads             0                       # Number of blocked loads due to partial load-store forwarding
system.cpu.iew.lsq.thread0.cacheBlocked           843                       # Number of times an access to memory failed due to the cache being blocked
system.cpu.iew.lsq.thread0.forwLoads            41745                       # Number of loads that had data forwarded from stores
system.cpu.iew.lsq.thread0.ignoredResponses          252                       # Number of memory responses ignored because the instruction is squashed
system.cpu.iew.lsq.thread0.invAddrLoads             0                       # Number of loads ignored due to an invalid address
system.cpu.iew.lsq.thread0.invAddrSwpfs             0                       # Number of software prefetches ignored due to an invalid address
system.cpu.iew.lsq.thread0.memOrderViolation          145                       # Number of memory ordering violations
system.cpu.iew.lsq.thread0.rescheduledLoads            0                       # Number of loads that were rescheduled
system.cpu.iew.lsq.thread0.squashedLoads      1072695                       # Number of loads squashed
system.cpu.iew.lsq.thread0.squashedStores      1293030                       # Number of stores squashed
system.cpu.iew.memOrderViolationEvents            145                       # Number of memory order violations
system.cpu.iew.predictedNotTakenIncorrect        22320                       # Number of branches that were predicted not taken incorrectly
system.cpu.iew.predictedTakenIncorrect          14312                       # Number of branches that were predicted taken incorrectly
system.cpu.iew.wb_consumers                  11578070                       # num instructions consuming a value
system.cpu.iew.wb_count                      12497076                       # cumulative count of insts written-back
system.cpu.iew.wb_fanout                     0.681647                       # average fanout of values written-back
system.cpu.iew.wb_producers                   7892152                       # num instructions producing a value
system.cpu.iew.wb_rate                       1.047107                       # insts written-back per cycle
system.cpu.iew.wb_sent                       12961552                       # cumulative count of insts sent to commit
system.cpu.int_regfile_reads                 20363041                       # number of integer regfile reads
system.cpu.int_regfile_writes                 8721230                       # number of integer regfile writes
system.cpu.ipc                               0.419446                       # IPC: Instructions Per Cycle
system.cpu.ipc_total                         0.419446                       # IPC: Total IPC of All Threads
system.cpu.iq.FU_type_0::No_OpClass            450881      3.42%      3.42% # Type of FU issued
system.cpu.iq.FU_type_0::IntAlu               7896791     59.96%     63.38% # Type of FU issued
system.cpu.iq.FU_type_0::IntMult                  858      0.01%     63.39% # Type of FU issued
system.cpu.iq.FU_type_0::IntDiv                 40612      0.31%     63.70% # Type of FU issued
system.cpu.iq.FU_type_0::FloatAdd                4488      0.03%     63.73% # Type of FU issued
system.cpu.iq.FU_type_0::FloatCmp                   0      0.00%     63.73% # Type of FU issued
system.cpu.iq.FU_type_0::FloatCvt                1336      0.01%     63.74% # Type of FU issued
system.cpu.iq.FU_type_0::FloatMult                  0      0.00%     63.74% # Type of FU issued
system.cpu.iq.FU_type_0::FloatMultAcc               0      0.00%     63.74% # Type of FU issued
system.cpu.iq.FU_type_0::FloatDiv                   0      0.00%     63.74% # Type of FU issued
system.cpu.iq.FU_type_0::FloatMisc                  0      0.00%     63.74% # Type of FU issued
system.cpu.iq.FU_type_0::FloatSqrt                  0      0.00%     63.74% # Type of FU issued
system.cpu.iq.FU_type_0::SimdAdd                 6860      0.05%     63.79% # Type of FU issued
system.cpu.iq.FU_type_0::SimdAddAcc                 0      0.00%     63.79% # Type of FU issued
system.cpu.iq.FU_type_0::SimdAlu                14806      0.11%     63.90% # Type of FU issued
system.cpu.iq.FU_type_0::SimdCmp                    0      0.00%     63.90% # Type of FU issued
system.cpu.iq.FU_type_0::SimdCvt                13946      0.11%     64.01% # Type of FU issued
system.cpu.iq.FU_type_0::SimdMisc                7154      0.05%     64.06% # Type of FU issued
system.cpu.iq.FU_type_0::SimdMult                   0      0.00%     64.06% # Type of FU issued
system.cpu.iq.FU_type_0::SimdMultAcc                0      0.00%     64.06% # Type of FU issued
system.cpu.iq.FU_type_0::SimdShift               2473      0.02%     64.08% # Type of FU issued
system.cpu.iq.FU_type_0::SimdShiftAcc               0      0.00%     64.08% # Type of FU issued
system.cpu.iq.FU_type_0::SimdDiv                    0      0.00%     64.08% # Type of FU issued
system.cpu.iq.FU_type_0::SimdSqrt                   0      0.00%     64.08% # Type of FU issued
system.cpu.iq.FU_type_0::SimdFloatAdd               0      0.00%     64.08% # Type of FU issued
system.cpu.iq.FU_type_0::SimdFloatAlu               0      0.00%     64.08% # Type of FU issued
system.cpu.iq.FU_type_0::SimdFloatCmp               0      0.00%     64.08% # Type of FU issued
system.cpu.iq.FU_type_0::SimdFloatCvt               0      0.00%     64.08% # Type of FU issued
system.cpu.iq.FU_type_0::SimdFloatDiv               0      0.00%     64.08% # Type of FU issued
system.cpu.iq.FU_type_0::SimdFloatMisc              0      0.00%     64.08% # Type of FU issued
system.cpu.iq.FU_type_0::SimdFloatMult              0      0.00%     64.08% # Type of FU issued
system.cpu.iq.FU_type_0::SimdFloatMultAcc            0      0.00%     64.08% # Type of FU issued
system.cpu.iq.FU_type_0::SimdFloatSqrt              0      0.00%     64.08% # Type of FU issued
system.cpu.iq.FU_type_0::SimdReduceAdd              0      0.00%     64.08% # Type of FU issued
system.cpu.iq.FU_type_0::SimdReduceAlu              0      0.00%     64.08% # Type of FU issued
system.cpu.iq.FU_type_0::SimdReduceCmp              0      0.00%     64.08% # Type of FU issued
system.cpu.iq.FU_type_0::SimdFloatReduceAdd            0      0.00%     64.08% # Type of FU issued
system.cpu.iq.FU_type_0::SimdFloatReduceCmp            0      0.00%     64.08% # Type of FU issued
system.cpu.iq.FU_type_0::SimdAes                    0      0.00%     64.08% # Type of FU issued
system.cpu.iq.FU_type_0::SimdAesMix                 0      0.00%     64.08% # Type of FU issued
system.cpu.iq.FU_type_0::SimdSha1Hash               0      0.00%     64.08% # Type of FU issued
system.cpu.iq.FU_type_0::SimdSha1Hash2              0      0.00%     64.08% # Type of FU issued
system.cpu.iq.FU_type_0::SimdSha256Hash             0      0.00%     64.08% # Type of FU issued
system.cpu.iq.FU_type_0::SimdSha256Hash2            0      0.00%     64.08% # Type of FU issued
system.cpu.iq.FU_type_0::SimdShaSigma2              0      0.00%     64.08% # Type of FU issued
system.cpu.iq.FU_type_0::SimdShaSigma3              0      0.00%     64.08% # Type of FU issued
system.cpu.iq.FU_type_0::SimdPredAlu                0      0.00%     64.08% # Type of FU issued
system.cpu.iq.FU_type_0::MemRead              1560634     11.85%     75.93% # Type of FU issued
system.cpu.iq.FU_type_0::MemWrite             1386615     10.53%     86.46% # Type of FU issued
system.cpu.iq.FU_type_0::FloatMemRead          858935      6.52%     92.98% # Type of FU issued
system.cpu.iq.FU_type_0::FloatMemWrite         924232      7.02%    100.00% # Type of FU issued
system.cpu.iq.FU_type_0::IprAccess                  0      0.00%    100.00% # Type of FU issued
system.cpu.iq.FU_type_0::InstPrefetch               0      0.00%    100.00% # Type of FU issued
system.cpu.iq.FU_type_0::total               13170621                       # Type of FU issued
system.cpu.iq.fp_alu_accesses                 1835254                       # Number of floating point alu accesses
system.cpu.iq.fp_inst_queue_reads             3671853                       # Number of floating instruction queue reads
system.cpu.iq.fp_inst_queue_wakeup_accesses      1718364                       # Number of floating instruction queue wakeup accesses
system.cpu.iq.fp_inst_queue_writes            3474159                       # Number of floating instruction queue writes
system.cpu.iq.fu_busy_cnt                           0                       # FU busy when requested
system.cpu.iq.fu_busy_rate                          0                       # FU busy rate (busy events/executed inst)
system.cpu.iq.fu_full::No_OpClass                   0                       # attempts to use FU when none available
system.cpu.iq.fu_full::IntAlu                       0                       # attempts to use FU when none available
system.cpu.iq.fu_full::IntMult                      0                       # attempts to use FU when none available
system.cpu.iq.fu_full::IntDiv                       0                       # attempts to use FU when none available
system.cpu.iq.fu_full::FloatAdd                     0                       # attempts to use FU when none available
system.cpu.iq.fu_full::FloatCmp                     0                       # attempts to use FU when none available
system.cpu.iq.fu_full::FloatCvt                     0                       # attempts to use FU when none available
system.cpu.iq.fu_full::FloatMult                    0                       # attempts to use FU when none available
system.cpu.iq.fu_full::FloatMultAcc                 0                       # attempts to use FU when none available
system.cpu.iq.fu_full::FloatDiv                     0                       # attempts to use FU when none available
system.cpu.iq.fu_full::FloatMisc                    0                       # attempts to use FU when none available
system.cpu.iq.fu_full::FloatSqrt                    0                       # attempts to use FU when none available
system.cpu.iq.fu_full::SimdAdd                      0                       # attempts to use FU when none available
system.cpu.iq.fu_full::SimdAddAcc                   0                       # attempts to use FU when none available
system.cpu.iq.fu_full::SimdAlu                      0                       # attempts to use FU when none available
system.cpu.iq.fu_full::SimdCmp                      0                       # attempts to use FU when none available
system.cpu.iq.fu_full::SimdCvt                      0                       # attempts to use FU when none available
system.cpu.iq.fu_full::SimdMisc                     0                       # attempts to use FU when none available
system.cpu.iq.fu_full::SimdMult                     0                       # attempts to use FU when none available
system.cpu.iq.fu_full::SimdMultAcc                  0                       # attempts to use FU when none available
system.cpu.iq.fu_full::SimdShift                    0                       # attempts to use FU when none available
system.cpu.iq.fu_full::SimdShiftAcc                 0                       # attempts to use FU when none available
system.cpu.iq.fu_full::SimdDiv                      0                       # attempts to use FU when none available
system.cpu.iq.fu_full::SimdSqrt                     0                       # attempts to use FU when none available
system.cpu.iq.fu_full::SimdFloatAdd                 0                       # attempts to use FU when none available
system.cpu.iq.fu_full::SimdFloatAlu                 0                       # attempts to use FU when none available
system.cpu.iq.fu_full::SimdFloatCmp                 0                       # attempts to use FU when none available
system.cpu.iq.fu_full::SimdFloatCvt                 0                       # attempts to use FU when none available
system.cpu.iq.fu_full::SimdFloatDiv                 0                       # attempts to use FU when none available
system.cpu.iq.fu_full::SimdFloatMisc                0                       # attempts to use FU when none available
system.cpu.iq.fu_full::SimdFloatMult                0                       # attempts to use FU when none available
system.cpu.iq.fu_full::SimdFloatMultAcc             0                       # attempts to use FU when none available
system.cpu.iq.fu_full::SimdFloatSqrt                0                       # attempts to use FU when none available
system.cpu.iq.fu_full::SimdReduceAdd                0                       # attempts to use FU when none available
system.cpu.iq.fu_full::SimdReduceAlu                0                       # attempts to use FU when none available
system.cpu.iq.fu_full::SimdReduceCmp                0                       # attempts to use FU when none available
system.cpu.iq.fu_full::SimdFloatReduceAdd            0                       # attempts to use FU when none available
system.cpu.iq.fu_full::SimdFloatReduceCmp            0                       # attempts to use FU when none available
system.cpu.iq.fu_full::SimdAes                      0                       # attempts to use FU when none available
system.cpu.iq.fu_full::SimdAesMix                   0                       # attempts to use FU when none available
system.cpu.iq.fu_full::SimdSha1Hash                 0                       # attempts to use FU when none available
system.cpu.iq.fu_full::SimdSha1Hash2                0                       # attempts to use FU when none available
system.cpu.iq.fu_full::SimdSha256Hash               0                       # attempts to use FU when none available
system.cpu.iq.fu_full::SimdSha256Hash2              0                       # attempts to use FU when none available
system.cpu.iq.fu_full::SimdShaSigma2                0                       # attempts to use FU when none available
system.cpu.iq.fu_full::SimdShaSigma3                0                       # attempts to use FU when none available
system.cpu.iq.fu_full::SimdPredAlu                  0                       # attempts to use FU when none available
system.cpu.iq.fu_full::MemRead                      0                       # attempts to use FU when none available
system.cpu.iq.fu_full::MemWrite                     0                       # attempts to use FU when none available
system.cpu.iq.fu_full::FloatMemRead                 0                       # attempts to use FU when none available
system.cpu.iq.fu_full::FloatMemWrite                0                       # attempts to use FU when none available
system.cpu.iq.fu_full::IprAccess                    0                       # attempts to use FU when none available
system.cpu.iq.fu_full::InstPrefetch                 0                       # attempts to use FU when none available
system.cpu.iq.int_alu_accesses               10884486                       # Number of integer alu accesses
system.cpu.iq.int_inst_queue_reads           34449653                       # Number of integer instruction queue reads
system.cpu.iq.int_inst_queue_wakeup_accesses     10778712                       # Number of integer instruction queue wakeup accesses
system.cpu.iq.int_inst_queue_writes          14813947                       # Number of integer instruction queue writes
system.cpu.iq.iqInstsAdded                   13539220                       # Number of instructions added to the IQ (excludes non-spec)
system.cpu.iq.iqInstsIssued                  13170621                       # Number of instructions issued
system.cpu.iq.iqNonSpecInstsAdded                4304                       # Number of non-speculative instructions added to the IQ
system.cpu.iq.iqSquashedInstsExamined         4744442                       # Number of squashed instructions iterated over during squash; mainly for profiling
system.cpu.iq.iqSquashedInstsIssued             19423                       # Number of squashed instructions issued
system.cpu.iq.iqSquashedNonSpecRemoved           2534                       # Number of squashed non-spec instructions that were removed
system.cpu.iq.iqSquashedOperandsExamined      1991968                       # Number of squashed operands that are examined and possibly removed from graph
system.cpu.iq.issued_per_cycle::samples      11760844                       # Number of insts issued each cycle
system.cpu.iq.issued_per_cycle::mean         1.119870                       # Number of insts issued each cycle
system.cpu.iq.issued_per_cycle::stdev        1.605424                       # Number of insts issued each cycle
system.cpu.iq.issued_per_cycle::underflows            0      0.00%      0.00% # Number of insts issued each cycle
system.cpu.iq.issued_per_cycle::0             7394370     62.87%     62.87% # Number of insts issued each cycle
system.cpu.iq.issued_per_cycle::1              583403      4.96%     67.83% # Number of insts issued each cycle
system.cpu.iq.issued_per_cycle::2              882266      7.50%     75.34% # Number of insts issued each cycle
system.cpu.iq.issued_per_cycle::3              780534      6.64%     81.97% # Number of insts issued each cycle
system.cpu.iq.issued_per_cycle::4             2120271     18.03%    100.00% # Number of insts issued each cycle
system.cpu.iq.issued_per_cycle::overflows            0      0.00%    100.00% # Number of insts issued each cycle
system.cpu.iq.issued_per_cycle::min_value            0                       # Number of insts issued each cycle
system.cpu.iq.issued_per_cycle::max_value            4                       # Number of insts issued each cycle
system.cpu.iq.issued_per_cycle::total        11760844                       # Number of insts issued each cycle
system.cpu.iq.rate                           1.103542                       # Inst issue rate
system.cpu.iq.vec_alu_accesses                      0                       # Number of vector alu accesses
system.cpu.iq.vec_inst_queue_reads                  0                       # Number of vector instruction queue reads
system.cpu.iq.vec_inst_queue_wakeup_accesses            0                       # Number of vector instruction queue wakeup accesses
system.cpu.iq.vec_inst_queue_writes                 0                       # Number of vector instruction queue writes
system.cpu.itb.rdAccesses                           0                       # TLB accesses on read requests
system.cpu.itb.rdMisses                             0                       # TLB misses on read requests
system.cpu.itb.wrAccesses                      686247                       # TLB accesses on write requests
system.cpu.itb.wrMisses                           360                       # TLB misses on write requests
system.cpu.memDep0.conflictingLoads             13135                       # Number of conflicting loads.
system.cpu.memDep0.conflictingStores            43959                       # Number of conflicting stores.
system.cpu.memDep0.insertedLoads              2443022                       # Number of loads inserted to the mem dependence unit.
system.cpu.memDep0.insertedStores             2344602                       # Number of stores inserted to the mem dependence unit.
system.cpu.misc_regfile_reads                 6256069                       # number of misc regfile reads
system.cpu.misc_regfile_writes                    720                       # number of misc regfile writes
system.cpu.numCycles                         11934862                       # number of cpu cycles simulated
system.cpu.numWorkItemsCompleted                    0                       # number of work items this cpu completed
system.cpu.numWorkItemsStarted                      0                       # number of work items this cpu started
system.cpu.process.numSyscalls                    550                       # Number of system calls
system.cpu.rename.BlockCycles                 1637022                       # Number of cycles rename is blocking
system.cpu.rename.CommittedMaps              11036217                       # Number of HB maps that are committed
system.cpu.rename.FullRegisterEvents               26                       # Number of times there has been no free registers
system.cpu.rename.IQFullEvents                  53119                       # Number of times rename has blocked due to IQ full
system.cpu.rename.IdleCycles                  1019087                       # Number of cycles rename is idle
system.cpu.rename.LQFullEvents                  13630                       # Number of times rename has blocked due to LQ full
system.cpu.rename.ROBFullEvents                  6945                       # Number of times rename has blocked due to ROB full
system.cpu.rename.RenameLookups              34766844                       # Number of register rename lookups that rename has made
system.cpu.rename.RenamedInsts               13970503                       # Number of instructions processed by rename
system.cpu.rename.RenamedOperands            15522033                       # Number of destination operands rename has renamed
system.cpu.rename.RunCycles                   3304498                       # Number of cycles rename is running
system.cpu.rename.SQFullEvents                5366910                       # Number of times rename has blocked due to SQ full
system.cpu.rename.SquashCycles                  72153                       # Number of cycles rename is squashing
system.cpu.rename.UnblockCycles               5695266                       # Number of cycles rename is unblocking
system.cpu.rename.UndoneMaps                  4485789                       # Number of HB maps that are undone due to squashing
system.cpu.rename.fp_rename_lookups           1132446                       # Number of floating rename lookups
system.cpu.rename.int_rename_lookups         22056496                       # Number of integer rename lookups
system.cpu.rename.serializeStallCycles          32818                       # count of cycles rename stalled for serializing inst
system.cpu.rename.serializingInsts               1415                       # count of serializing insts renamed
system.cpu.rename.skidInsts                   1760669                       # count of insts added to the skid buffer
system.cpu.rename.tempSerializingInsts           1469                       # count of temporary serializing insts renamed
system.cpu.rob.rob_reads                     20765458                       # The number of ROB reads
system.cpu.rob.rob_writes                    24594753                       # The number of ROB writes
system.cpu.timesIdled                            1723                       # Number of times that the entire CPU went into an idle state and unscheduled itself
system.l2bus.snoop_filter.hit_multi_requests           17                       # Number of requests hitting in the snoop filter with multiple (>1) holders of the requested data.
system.l2bus.snoop_filter.hit_multi_snoops            1                       # Number of snoops hitting in the snoop filter with multiple (>1) holders of the requested data.
system.l2bus.snoop_filter.hit_single_requests        86946                       # Number of requests hitting in the snoop filter with a single holder of the requested data.
system.l2bus.snoop_filter.hit_single_snoops          917                       # Number of snoops hitting in the snoop filter with a single holder of the requested data.
system.l2bus.snoop_filter.tot_requests         175172                       # Total number of requests made to the snoop filter.
system.l2bus.snoop_filter.tot_snoops              918                       # Total number of snoops made to the snoop filter.
system.l2cache.prefetcher.num_hwpf_issued        19456                       # number of hwpf issued
system.l2cache.prefetcher.pfBufferHit               0                       # number of redundant prefetches already in prefetch queue
system.l2cache.prefetcher.pfIdentified          19459                       # number of prefetch candidates identified
system.l2cache.prefetcher.pfInCache                 0                       # number of redundant prefetches already in cache/mshr dropped
system.l2cache.prefetcher.pfRemovedFull             0                       # number of prefetches dropped due to prefetch queue size
system.l2cache.prefetcher.pfSpanPage             4981                       # number of prefetches that crossed the page
system.membus.snoop_filter.hit_multi_requests            0                       # Number of requests hitting in the snoop filter with multiple (>1) holders of the requested data.
system.membus.snoop_filter.hit_multi_snoops            0                       # Number of snoops hitting in the snoop filter with multiple (>1) holders of the requested data.
system.membus.snoop_filter.hit_single_requests        77165                       # Number of requests hitting in the snoop filter with a single holder of the requested data.
system.membus.snoop_filter.hit_single_snoops            0                       # Number of snoops hitting in the snoop filter with a single holder of the requested data.
system.membus.snoop_filter.tot_requests        158603                       # Total number of requests made to the snoop filter.
system.membus.snoop_filter.tot_snoops               0                       # Total number of snoops made to the snoop filter.
system.membus.pwrStateResidencyTicks::UNDEFINED   4773944400                       # Cumulative time (in ticks) in various power states
system.membus.trans_dist::ReadResp              51684                       # Transaction distribution
system.membus.trans_dist::WritebackDirty        55041                       # Transaction distribution
system.membus.trans_dist::CleanEvict            22123                       # Transaction distribution
system.membus.trans_dist::UpgradeReq                1                       # Transaction distribution
system.membus.trans_dist::ReadExReq             29754                       # Transaction distribution
system.membus.trans_dist::ReadExResp            29754                       # Transaction distribution
system.membus.trans_dist::ReadSharedReq         51684                       # Transaction distribution
system.membus.pkt_count_system.l2cache.mem_side::system.mem_ctrl.port       240041                       # Packet count per connected master and slave (bytes)
system.membus.pkt_count_system.l2cache.mem_side::total       240041                       # Packet count per connected master and slave (bytes)
system.membus.pkt_count::total                 240041                       # Packet count per connected master and slave (bytes)
system.membus.pkt_size_system.l2cache.mem_side::system.mem_ctrl.port      8734656                       # Cumulative packet size per connected master and slave (bytes)
system.membus.pkt_size_system.l2cache.mem_side::total      8734656                       # Cumulative packet size per connected master and slave (bytes)
system.membus.pkt_size::total                 8734656                       # Cumulative packet size per connected master and slave (bytes)
system.membus.snoops                                0                       # Total snoops (count)
system.membus.snoopTraffic                          0                       # Total snoop traffic (bytes)
system.membus.snoop_fanout::samples             81439                       # Request fanout histogram
system.membus.snoop_fanout::mean                    0                       # Request fanout histogram
system.membus.snoop_fanout::stdev                   0                       # Request fanout histogram
system.membus.snoop_fanout::underflows              0      0.00%      0.00% # Request fanout histogram
system.membus.snoop_fanout::0                   81439    100.00%    100.00% # Request fanout histogram
system.membus.snoop_fanout::1                       0      0.00%    100.00% # Request fanout histogram
system.membus.snoop_fanout::overflows               0      0.00%    100.00% # Request fanout histogram
system.membus.snoop_fanout::min_value               0                       # Request fanout histogram
system.membus.snoop_fanout::max_value               0                       # Request fanout histogram
system.membus.snoop_fanout::total               81439                       # Request fanout histogram
system.membus.reqLayer2.occupancy           152808508                       # Layer occupancy (ticks)
system.membus.reqLayer2.utilization               3.2                       # Layer utilization (%)
system.membus.respLayer0.occupancy          176850692                       # Layer occupancy (ticks)
system.membus.respLayer0.utilization              3.7                       # Layer utilization (%)
system.l2bus.pwrStateResidencyTicks::UNDEFINED   4773944400                       # Cumulative time (in ticks) in various power states
system.l2bus.trans_dist::ReadResp               57533                       # Transaction distribution
system.l2bus.trans_dist::WritebackDirty        113687                       # Transaction distribution
system.l2bus.trans_dist::CleanEvict             50727                       # Transaction distribution
system.l2bus.trans_dist::HardPFReq              23178                       # Transaction distribution
system.l2bus.trans_dist::UpgradeReq                 2                       # Transaction distribution
system.l2bus.trans_dist::UpgradeResp                2                       # Transaction distribution
system.l2bus.trans_dist::ReadExReq              30693                       # Transaction distribution
system.l2bus.trans_dist::ReadExResp             30693                       # Transaction distribution
system.l2bus.trans_dist::ReadSharedReq          57533                       # Transaction distribution
system.l2bus.pkt_count_system.cpu.icache.mem_side::system.l2cache.cpu_side         8901                       # Packet count per connected master and slave (bytes)
system.l2bus.pkt_count_system.cpu.dcache.mem_side::system.l2cache.cpu_side       254493                       # Packet count per connected master and slave (bytes)
system.l2bus.pkt_count::total                  263394                       # Packet count per connected master and slave (bytes)
system.l2bus.pkt_size_system.cpu.icache.mem_side::system.l2cache.cpu_side       195136                       # Cumulative packet size per connected master and slave (bytes)
system.l2bus.pkt_size_system.cpu.dcache.mem_side::system.l2cache.cpu_side      9204288                       # Cumulative packet size per connected master and slave (bytes)
system.l2bus.pkt_size::total                  9399424                       # Cumulative packet size per connected master and slave (bytes)
system.l2bus.snoops                            100654                       # Total snoops (count)
system.l2bus.snoopTraffic                     3523008                       # Total snoop traffic (bytes)
system.l2bus.snoop_fanout::samples             188876                       # Request fanout histogram
system.l2bus.snoop_fanout::mean              0.004966                       # Request fanout histogram
system.l2bus.snoop_fanout::stdev             0.070372                       # Request fanout histogram
system.l2bus.snoop_fanout::underflows               0      0.00%      0.00% # Request fanout histogram
system.l2bus.snoop_fanout::0                   187939     99.50%     99.50% # Request fanout histogram
system.l2bus.snoop_fanout::1                      936      0.50%    100.00% # Request fanout histogram
system.l2bus.snoop_fanout::2                        1      0.00%    100.00% # Request fanout histogram
system.l2bus.snoop_fanout::overflows                0      0.00%    100.00% # Request fanout histogram
system.l2bus.snoop_fanout::min_value                0                       # Request fanout histogram
system.l2bus.snoop_fanout::max_value                2                       # Request fanout histogram
system.l2bus.snoop_fanout::total               188876                       # Request fanout histogram
system.l2bus.respLayer1.occupancy           102206399                       # Layer occupancy (ticks)
system.l2bus.respLayer1.utilization               2.1                       # Layer utilization (%)
system.l2bus.reqLayer0.occupancy            130565780                       # Layer occupancy (ticks)
system.l2bus.reqLayer0.utilization                2.7                       # Layer utilization (%)
system.l2bus.respLayer0.occupancy             3667197                       # Layer occupancy (ticks)
system.l2bus.respLayer0.utilization               0.1                       # Layer utilization (%)
system.clk_domain.clock                           400                       # Clock period in ticks
system.clk_domain.voltage_domain.voltage            1                       # Voltage in Volts
system.cpu.pwrStateResidencyTicks::ON      4773944400                       # Cumulative time (in ticks) in various power states
system.cpu.icache.pwrStateResidencyTicks::UNDEFINED   4773944400                       # Cumulative time (in ticks) in various power states
system.cpu.icache.demand_hits::.cpu.inst       682362                       # number of demand (read+write) hits
system.cpu.icache.demand_hits::total           682362                       # number of demand (read+write) hits
system.cpu.icache.overall_hits::.cpu.inst       682362                       # number of overall hits
system.cpu.icache.overall_hits::total          682362                       # number of overall hits
system.cpu.icache.demand_misses::.cpu.inst         3779                       # number of demand (read+write) misses
system.cpu.icache.demand_misses::total           3779                       # number of demand (read+write) misses
system.cpu.icache.overall_misses::.cpu.inst         3779                       # number of overall misses
system.cpu.icache.overall_misses::total          3779                       # number of overall misses
system.cpu.icache.demand_miss_latency::.cpu.inst    187812400                       # number of demand (read+write) miss cycles
system.cpu.icache.demand_miss_latency::total    187812400                       # number of demand (read+write) miss cycles
system.cpu.icache.overall_miss_latency::.cpu.inst    187812400                       # number of overall miss cycles
system.cpu.icache.overall_miss_latency::total    187812400                       # number of overall miss cycles
system.cpu.icache.demand_accesses::.cpu.inst       686141                       # number of demand (read+write) accesses
system.cpu.icache.demand_accesses::total       686141                       # number of demand (read+write) accesses
system.cpu.icache.overall_accesses::.cpu.inst       686141                       # number of overall (read+write) accesses
system.cpu.icache.overall_accesses::total       686141                       # number of overall (read+write) accesses
system.cpu.icache.demand_miss_rate::.cpu.inst     0.005508                       # miss rate for demand accesses
system.cpu.icache.demand_miss_rate::total     0.005508                       # miss rate for demand accesses
system.cpu.icache.overall_miss_rate::.cpu.inst     0.005508                       # miss rate for overall accesses
system.cpu.icache.overall_miss_rate::total     0.005508                       # miss rate for overall accesses
system.cpu.icache.demand_avg_miss_latency::.cpu.inst 49698.967981                       # average overall miss latency
system.cpu.icache.demand_avg_miss_latency::total 49698.967981                       # average overall miss latency
system.cpu.icache.overall_avg_miss_latency::.cpu.inst 49698.967981                       # average overall miss latency
system.cpu.icache.overall_avg_miss_latency::total 49698.967981                       # average overall miss latency
system.cpu.icache.blocked_cycles::no_mshrs           92                       # number of cycles access was blocked
system.cpu.icache.blocked_cycles::no_targets            0                       # number of cycles access was blocked
system.cpu.icache.blocked::no_mshrs                 6                       # number of cycles access was blocked
system.cpu.icache.blocked::no_targets               0                       # number of cycles access was blocked
system.cpu.icache.avg_blocked_cycles::no_mshrs    15.333333                       # average number of cycles each access was blocked
system.cpu.icache.avg_blocked_cycles::no_targets          nan                       # average number of cycles each access was blocked
system.cpu.icache.demand_mshr_hits::.cpu.inst          724                       # number of demand (read+write) MSHR hits
system.cpu.icache.demand_mshr_hits::total          724                       # number of demand (read+write) MSHR hits
system.cpu.icache.overall_mshr_hits::.cpu.inst          724                       # number of overall MSHR hits
system.cpu.icache.overall_mshr_hits::total          724                       # number of overall MSHR hits
system.cpu.icache.demand_mshr_misses::.cpu.inst         3055                       # number of demand (read+write) MSHR misses
system.cpu.icache.demand_mshr_misses::total         3055                       # number of demand (read+write) MSHR misses
system.cpu.icache.overall_mshr_misses::.cpu.inst         3055                       # number of overall MSHR misses
system.cpu.icache.overall_mshr_misses::total         3055                       # number of overall MSHR misses
system.cpu.icache.demand_mshr_miss_latency::.cpu.inst    153432400                       # number of demand (read+write) MSHR miss cycles
system.cpu.icache.demand_mshr_miss_latency::total    153432400                       # number of demand (read+write) MSHR miss cycles
system.cpu.icache.overall_mshr_miss_latency::.cpu.inst    153432400                       # number of overall MSHR miss cycles
system.cpu.icache.overall_mshr_miss_latency::total    153432400                       # number of overall MSHR miss cycles
system.cpu.icache.demand_mshr_miss_rate::.cpu.inst     0.004452                       # mshr miss rate for demand accesses
system.cpu.icache.demand_mshr_miss_rate::total     0.004452                       # mshr miss rate for demand accesses
system.cpu.icache.overall_mshr_miss_rate::.cpu.inst     0.004452                       # mshr miss rate for overall accesses
system.cpu.icache.overall_mshr_miss_rate::total     0.004452                       # mshr miss rate for overall accesses
system.cpu.icache.demand_avg_mshr_miss_latency::.cpu.inst 50223.371522                       # average overall mshr miss latency
system.cpu.icache.demand_avg_mshr_miss_latency::total 50223.371522                       # average overall mshr miss latency
system.cpu.icache.overall_avg_mshr_miss_latency::.cpu.inst 50223.371522                       # average overall mshr miss latency
system.cpu.icache.overall_avg_mshr_miss_latency::total 50223.371522                       # average overall mshr miss latency
system.cpu.icache.replacements                   2797                       # number of replacements
system.cpu.icache.ReadReq_hits::.cpu.inst       682362                       # number of ReadReq hits
system.cpu.icache.ReadReq_hits::total          682362                       # number of ReadReq hits
system.cpu.icache.ReadReq_misses::.cpu.inst         3779                       # number of ReadReq misses
system.cpu.icache.ReadReq_misses::total          3779                       # number of ReadReq misses
system.cpu.icache.ReadReq_miss_latency::.cpu.inst    187812400                       # number of ReadReq miss cycles
system.cpu.icache.ReadReq_miss_latency::total    187812400                       # number of ReadReq miss cycles
system.cpu.icache.ReadReq_accesses::.cpu.inst       686141                       # number of ReadReq accesses(hits+misses)
system.cpu.icache.ReadReq_accesses::total       686141                       # number of ReadReq accesses(hits+misses)
system.cpu.icache.ReadReq_miss_rate::.cpu.inst     0.005508                       # miss rate for ReadReq accesses
system.cpu.icache.ReadReq_miss_rate::total     0.005508                       # miss rate for ReadReq accesses
system.cpu.icache.ReadReq_avg_miss_latency::.cpu.inst 49698.967981                       # average ReadReq miss latency
system.cpu.icache.ReadReq_avg_miss_latency::total 49698.967981                       # average ReadReq miss latency
system.cpu.icache.ReadReq_mshr_hits::.cpu.inst          724                       # number of ReadReq MSHR hits
system.cpu.icache.ReadReq_mshr_hits::total          724                       # number of ReadReq MSHR hits
system.cpu.icache.ReadReq_mshr_misses::.cpu.inst         3055                       # number of ReadReq MSHR misses
system.cpu.icache.ReadReq_mshr_misses::total         3055                       # number of ReadReq MSHR misses
system.cpu.icache.ReadReq_mshr_miss_latency::.cpu.inst    153432400                       # number of ReadReq MSHR miss cycles
system.cpu.icache.ReadReq_mshr_miss_latency::total    153432400                       # number of ReadReq MSHR miss cycles
system.cpu.icache.ReadReq_mshr_miss_rate::.cpu.inst     0.004452                       # mshr miss rate for ReadReq accesses
system.cpu.icache.ReadReq_mshr_miss_rate::total     0.004452                       # mshr miss rate for ReadReq accesses
system.cpu.icache.ReadReq_avg_mshr_miss_latency::.cpu.inst 50223.371522                       # average ReadReq mshr miss latency
system.cpu.icache.ReadReq_avg_mshr_miss_latency::total 50223.371522                       # average ReadReq mshr miss latency
system.cpu.icache.prefetcher.pwrStateResidencyTicks::UNDEFINED   4773944400                       # Cumulative time (in ticks) in various power states
system.cpu.icache.tags.pwrStateResidencyTicks::UNDEFINED   4773944400                       # Cumulative time (in ticks) in various power states
system.cpu.icache.tags.tagsinuse           255.419929                       # Cycle average of tags in use
system.cpu.icache.tags.total_refs              366831                       # Total number of references to valid blocks.
system.cpu.icache.tags.sampled_refs              2799                       # Sample count of references to valid blocks.
system.cpu.icache.tags.avg_refs            131.057878                       # Average number of references to valid blocks.
system.cpu.icache.tags.warmup_cycle             66400                       # Cycle when the warmup percentage was hit.
system.cpu.icache.tags.occ_blocks::.cpu.inst   255.419929                       # Average occupied blocks per requestor
system.cpu.icache.tags.occ_percent::.cpu.inst     0.997734                       # Average percentage of cache occupancy
system.cpu.icache.tags.occ_percent::total     0.997734                       # Average percentage of cache occupancy
system.cpu.icache.tags.occ_task_id_blocks::1024          256                       # Occupied blocks per task id
system.cpu.icache.tags.age_task_id_blocks_1024::0           76                       # Occupied blocks per task id
system.cpu.icache.tags.age_task_id_blocks_1024::1            2                       # Occupied blocks per task id
system.cpu.icache.tags.age_task_id_blocks_1024::3          178                       # Occupied blocks per task id
system.cpu.icache.tags.occ_task_id_percent::1024            1                       # Percentage of cache occupancy per task id
system.cpu.icache.tags.tag_accesses           1375337                       # Number of tag accesses
system.cpu.icache.tags.data_accesses          1375337                       # Number of data accesses
system.cpu.dtb.walker.pwrStateResidencyTicks::UNDEFINED   4773944400                       # Cumulative time (in ticks) in various power states
system.cpu.interrupts.clk_domain.clock           6400                       # Clock period in ticks
system.cpu.itb.walker.pwrStateResidencyTicks::UNDEFINED   4773944400                       # Cumulative time (in ticks) in various power states
system.cpu.dcache.pwrStateResidencyTicks::UNDEFINED   4773944400                       # Cumulative time (in ticks) in various power states
system.cpu.dcache.demand_hits::.cpu.data      3075809                       # number of demand (read+write) hits
system.cpu.dcache.demand_hits::total          3075809                       # number of demand (read+write) hits
system.cpu.dcache.overall_hits::.cpu.data      3277873                       # number of overall hits
system.cpu.dcache.overall_hits::total         3277873                       # number of overall hits
system.cpu.dcache.demand_misses::.cpu.data        96263                       # number of demand (read+write) misses
system.cpu.dcache.demand_misses::total          96263                       # number of demand (read+write) misses
system.cpu.dcache.overall_misses::.cpu.data        96863                       # number of overall misses
system.cpu.dcache.overall_misses::total         96863                       # number of overall misses
system.cpu.dcache.demand_miss_latency::.cpu.data   5721236799                       # number of demand (read+write) miss cycles
system.cpu.dcache.demand_miss_latency::total   5721236799                       # number of demand (read+write) miss cycles
system.cpu.dcache.overall_miss_latency::.cpu.data   5721236799                       # number of overall miss cycles
system.cpu.dcache.overall_miss_latency::total   5721236799                       # number of overall miss cycles
system.cpu.dcache.demand_accesses::.cpu.data      3172072                       # number of demand (read+write) accesses
system.cpu.dcache.demand_accesses::total      3172072                       # number of demand (read+write) accesses
system.cpu.dcache.overall_accesses::.cpu.data      3374736                       # number of overall (read+write) accesses
system.cpu.dcache.overall_accesses::total      3374736                       # number of overall (read+write) accesses
system.cpu.dcache.demand_miss_rate::.cpu.data     0.030347                       # miss rate for demand accesses
system.cpu.dcache.demand_miss_rate::total     0.030347                       # miss rate for demand accesses
system.cpu.dcache.overall_miss_rate::.cpu.data     0.028702                       # miss rate for overall accesses
system.cpu.dcache.overall_miss_rate::total     0.028702                       # miss rate for overall accesses
system.cpu.dcache.demand_avg_miss_latency::.cpu.data 59433.393921                       # average overall miss latency
system.cpu.dcache.demand_avg_miss_latency::total 59433.393921                       # average overall miss latency
system.cpu.dcache.overall_avg_miss_latency::.cpu.data 59065.244717                       # average overall miss latency
system.cpu.dcache.overall_avg_miss_latency::total 59065.244717                       # average overall miss latency
system.cpu.dcache.blocked_cycles::no_mshrs        48506                       # number of cycles access was blocked
system.cpu.dcache.blocked_cycles::no_targets          585                       # number of cycles access was blocked
system.cpu.dcache.blocked::no_mshrs              1019                       # number of cycles access was blocked
system.cpu.dcache.blocked::no_targets               5                       # number of cycles access was blocked
system.cpu.dcache.avg_blocked_cycles::no_mshrs    47.601570                       # average number of cycles each access was blocked
system.cpu.dcache.avg_blocked_cycles::no_targets          117                       # average number of cycles each access was blocked
system.cpu.dcache.unused_prefetches              2054                       # number of HardPF blocks evicted w/o reference
system.cpu.dcache.writebacks::.writebacks        58646                       # number of writebacks
system.cpu.dcache.writebacks::total             58646                       # number of writebacks
system.cpu.dcache.demand_mshr_hits::.cpu.data        52948                       # number of demand (read+write) MSHR hits
system.cpu.dcache.demand_mshr_hits::total        52948                       # number of demand (read+write) MSHR hits
system.cpu.dcache.overall_mshr_hits::.cpu.data        52948                       # number of overall MSHR hits
system.cpu.dcache.overall_mshr_hits::total        52948                       # number of overall MSHR hits
system.cpu.dcache.demand_mshr_misses::.cpu.data        43315                       # number of demand (read+write) MSHR misses
system.cpu.dcache.demand_mshr_misses::total        43315                       # number of demand (read+write) MSHR misses
system.cpu.dcache.overall_mshr_misses::.cpu.data        43710                       # number of overall MSHR misses
system.cpu.dcache.overall_mshr_misses::.cpu.dcache.prefetcher        41463                       # number of overall MSHR misses
system.cpu.dcache.overall_mshr_misses::total        85173                       # number of overall MSHR misses
system.cpu.dcache.demand_mshr_miss_latency::.cpu.data   2801027999                       # number of demand (read+write) MSHR miss cycles
system.cpu.dcache.demand_mshr_miss_latency::total   2801027999                       # number of demand (read+write) MSHR miss cycles
system.cpu.dcache.overall_mshr_miss_latency::.cpu.data   2811637199                       # number of overall MSHR miss cycles
system.cpu.dcache.overall_mshr_miss_latency::.cpu.dcache.prefetcher   2295820116                       # number of overall MSHR miss cycles
system.cpu.dcache.overall_mshr_miss_latency::total   5107457315                       # number of overall MSHR miss cycles
system.cpu.dcache.demand_mshr_miss_rate::.cpu.data     0.013655                       # mshr miss rate for demand accesses
system.cpu.dcache.demand_mshr_miss_rate::total     0.013655                       # mshr miss rate for demand accesses
system.cpu.dcache.overall_mshr_miss_rate::.cpu.data     0.012952                       # mshr miss rate for overall accesses
system.cpu.dcache.overall_mshr_miss_rate::.cpu.dcache.prefetcher          inf                       # mshr miss rate for overall accesses
system.cpu.dcache.overall_mshr_miss_rate::total     0.025238                       # mshr miss rate for overall accesses
system.cpu.dcache.demand_avg_mshr_miss_latency::.cpu.data 64666.466559                       # average overall mshr miss latency
system.cpu.dcache.demand_avg_mshr_miss_latency::total 64666.466559                       # average overall mshr miss latency
system.cpu.dcache.overall_avg_mshr_miss_latency::.cpu.data 64324.804370                       # average overall mshr miss latency
system.cpu.dcache.overall_avg_mshr_miss_latency::.cpu.dcache.prefetcher 55370.332972                       # average overall mshr miss latency
system.cpu.dcache.overall_avg_mshr_miss_latency::total 59965.685311                       # average overall mshr miss latency
system.cpu.dcache.replacements                  84147                       # number of replacements
system.cpu.dcache.ReadReq_hits::.cpu.data      2055652                       # number of ReadReq hits
system.cpu.dcache.ReadReq_hits::total         2055652                       # number of ReadReq hits
system.cpu.dcache.ReadReq_misses::.cpu.data        64844                       # number of ReadReq misses
system.cpu.dcache.ReadReq_misses::total         64844                       # number of ReadReq misses
system.cpu.dcache.ReadReq_miss_latency::.cpu.data   3492888000                       # number of ReadReq miss cycles
system.cpu.dcache.ReadReq_miss_latency::total   3492888000                       # number of ReadReq miss cycles
system.cpu.dcache.ReadReq_accesses::.cpu.data      2120496                       # number of ReadReq accesses(hits+misses)
system.cpu.dcache.ReadReq_accesses::total      2120496                       # number of ReadReq accesses(hits+misses)
system.cpu.dcache.ReadReq_miss_rate::.cpu.data     0.030580                       # miss rate for ReadReq accesses
system.cpu.dcache.ReadReq_miss_rate::total     0.030580                       # miss rate for ReadReq accesses
system.cpu.dcache.ReadReq_avg_miss_latency::.cpu.data 53866.016902                       # average ReadReq miss latency
system.cpu.dcache.ReadReq_avg_miss_latency::total 53866.016902                       # average ReadReq miss latency
system.cpu.dcache.ReadReq_mshr_hits::.cpu.data        52222                       # number of ReadReq MSHR hits
system.cpu.dcache.ReadReq_mshr_hits::total        52222                       # number of ReadReq MSHR hits
system.cpu.dcache.ReadReq_mshr_misses::.cpu.data        12622                       # number of ReadReq MSHR misses
system.cpu.dcache.ReadReq_mshr_misses::total        12622                       # number of ReadReq MSHR misses
system.cpu.dcache.ReadReq_mshr_miss_latency::.cpu.data    630456000                       # number of ReadReq MSHR miss cycles
system.cpu.dcache.ReadReq_mshr_miss_latency::total    630456000                       # number of ReadReq MSHR miss cycles
system.cpu.dcache.ReadReq_mshr_miss_rate::.cpu.data     0.005952                       # mshr miss rate for ReadReq accesses
system.cpu.dcache.ReadReq_mshr_miss_rate::total     0.005952                       # mshr miss rate for ReadReq accesses
system.cpu.dcache.ReadReq_avg_mshr_miss_latency::.cpu.data 49948.977975                       # average ReadReq mshr miss latency
system.cpu.dcache.ReadReq_avg_mshr_miss_latency::total 49948.977975                       # average ReadReq mshr miss latency
system.cpu.dcache.WriteReq_hits::.cpu.data      1020157                       # number of WriteReq hits
system.cpu.dcache.WriteReq_hits::total        1020157                       # number of WriteReq hits
system.cpu.dcache.WriteReq_misses::.cpu.data        31419                       # number of WriteReq misses
system.cpu.dcache.WriteReq_misses::total        31419                       # number of WriteReq misses
system.cpu.dcache.WriteReq_miss_latency::.cpu.data   2228348799                       # number of WriteReq miss cycles
system.cpu.dcache.WriteReq_miss_latency::total   2228348799                       # number of WriteReq miss cycles
system.cpu.dcache.WriteReq_accesses::.cpu.data      1051576                       # number of WriteReq accesses(hits+misses)
system.cpu.dcache.WriteReq_accesses::total      1051576                       # number of WriteReq accesses(hits+misses)
system.cpu.dcache.WriteReq_miss_rate::.cpu.data     0.029878                       # miss rate for WriteReq accesses
system.cpu.dcache.WriteReq_miss_rate::total     0.029878                       # miss rate for WriteReq accesses
system.cpu.dcache.WriteReq_avg_miss_latency::.cpu.data 70923.606703                       # average WriteReq miss latency
system.cpu.dcache.WriteReq_avg_miss_latency::total 70923.606703                       # average WriteReq miss latency
system.cpu.dcache.WriteReq_mshr_hits::.cpu.data          726                       # number of WriteReq MSHR hits
system.cpu.dcache.WriteReq_mshr_hits::total          726                       # number of WriteReq MSHR hits
[...]
system.l2cache.demand_mshr_miss_rate::.cpu.inst     0.584984                       # mshr miss rate for demand accesses
system.l2cache.demand_mshr_miss_rate::.cpu.data     0.943675                       # mshr miss rate for demand accesses
system.l2cache.demand_mshr_miss_rate::.cpu.dcache.prefetcher     0.888495                       # mshr miss rate for demand accesses
system.l2cache.demand_mshr_miss_rate::total     0.909738                       # mshr miss rate for demand accesses
system.l2cache.overall_mshr_miss_rate::.cpu.inst     0.584984                       # mshr miss rate for overall accesses
system.l2cache.overall_mshr_miss_rate::.cpu.data     0.943675                       # mshr miss rate for overall accesses
system.l2cache.overall_mshr_miss_rate::.cpu.dcache.prefetcher     0.888495                       # mshr miss rate for overall accesses
system.l2cache.overall_mshr_miss_rate::.l2cache.prefetcher          inf                       # mshr miss rate for overall accesses
system.l2cache.overall_mshr_miss_rate::total     0.993930                       # mshr miss rate for overall accesses
system.l2cache.demand_avg_mshr_miss_latency::.cpu.inst 62586.096257                       # average overall mshr miss latency
system.l2cache.demand_avg_mshr_miss_latency::.cpu.data 61937.217472                       # average overall mshr miss latency
system.l2cache.demand_avg_mshr_miss_latency::.cpu.dcache.prefetcher 63474.834606                       # average overall mshr miss latency
system.l2cache.demand_avg_mshr_miss_latency::total 62731.584192                       # average overall mshr miss latency
system.l2cache.overall_avg_mshr_miss_latency::.cpu.inst 62586.096257                       # average overall mshr miss latency
system.l2cache.overall_avg_mshr_miss_latency::.cpu.data 61937.217472                       # average overall mshr miss latency
system.l2cache.overall_avg_mshr_miss_latency::.cpu.dcache.prefetcher 63474.834606                       # average overall mshr miss latency
system.l2cache.overall_avg_mshr_miss_latency::.l2cache.prefetcher 63550.626306                       # average overall mshr miss latency
system.l2cache.overall_avg_mshr_miss_latency::total 62800.961513                       # average overall mshr miss latency
system.l2cache.replacements                     68960                       # number of replacements
system.l2cache.WritebackDirty_hits::.writebacks        12366                       # number of WritebackDirty hits
system.l2cache.WritebackDirty_hits::total        12366                       # number of WritebackDirty hits
system.l2cache.WritebackDirty_accesses::.writebacks        12366                       # number of WritebackDirty accesses(hits+misses)
system.l2cache.WritebackDirty_accesses::total        12366                       # number of WritebackDirty accesses(hits+misses)
system.l2cache.CleanEvict_mshr_misses::.writebacks          374                       # number of CleanEvict MSHR misses
system.l2cache.CleanEvict_mshr_misses::total          374                       # number of CleanEvict MSHR misses
system.l2cache.CleanEvict_mshr_miss_rate::.writebacks          inf                       # mshr miss rate for CleanEvict accesses
system.l2cache.CleanEvict_mshr_miss_rate::total          inf                       # mshr miss rate for CleanEvict accesses
system.l2cache.HardPFReq_mshr_misses::.l2cache.prefetcher         5839                       # number of HardPFReq MSHR misses
system.l2cache.HardPFReq_mshr_misses::total         5839                       # number of HardPFReq MSHR misses
system.l2cache.HardPFReq_mshr_miss_latency::.l2cache.prefetcher    371072107                       # number of HardPFReq MSHR miss cycles
system.l2cache.HardPFReq_mshr_miss_latency::total    371072107                       # number of HardPFReq MSHR miss cycles
system.l2cache.HardPFReq_mshr_miss_rate::.l2cache.prefetcher          inf                       # mshr miss rate for HardPFReq accesses
system.l2cache.HardPFReq_mshr_miss_rate::total          inf                       # mshr miss rate for HardPFReq accesses
system.l2cache.HardPFReq_avg_mshr_miss_latency::.l2cache.prefetcher 63550.626306                       # average HardPFReq mshr miss latency
system.l2cache.HardPFReq_avg_mshr_miss_latency::total 63550.626306                       # average HardPFReq mshr miss latency
system.l2cache.ReadExReq_hits::.cpu.data          146                       # number of ReadExReq hits
system.l2cache.ReadExReq_hits::total              146                       # number of ReadExReq hits
system.l2cache.ReadExReq_misses::.cpu.data         4718                       # number of ReadExReq misses
system.l2cache.ReadExReq_misses::total           4718                       # number of ReadExReq misses
system.l2cache.ReadExReq_miss_latency::.cpu.data    358891600                       # number of ReadExReq miss cycles
system.l2cache.ReadExReq_miss_latency::total    358891600                       # number of ReadExReq miss cycles
system.l2cache.ReadExReq_accesses::.cpu.data         4864                       # number of ReadExReq accesses(hits+misses)
system.l2cache.ReadExReq_accesses::total         4864                       # number of ReadExReq accesses(hits+misses)
system.l2cache.ReadExReq_miss_rate::.cpu.data     0.969984                       # miss rate for ReadExReq accesses
system.l2cache.ReadExReq_miss_rate::total     0.969984                       # miss rate for ReadExReq accesses
system.l2cache.ReadExReq_avg_miss_latency::.cpu.data 76068.588385                       # average ReadExReq miss latency
system.l2cache.ReadExReq_avg_miss_latency::total 76068.588385                       # average ReadExReq miss latency
system.l2cache.ReadExReq_mshr_misses::.cpu.data         4718                       # number of ReadExReq MSHR misses
system.l2cache.ReadExReq_mshr_misses::total         4718                       # number of ReadExReq MSHR misses
system.l2cache.ReadExReq_mshr_miss_latency::.cpu.data    321147600                       # number of ReadExReq MSHR miss cycles
system.l2cache.ReadExReq_mshr_miss_latency::total    321147600                       # number of ReadExReq MSHR miss cycles
system.l2cache.ReadExReq_mshr_miss_rate::.cpu.data     0.969984                       # mshr miss rate for ReadExReq accesses
system.l2cache.ReadExReq_mshr_miss_rate::total     0.969984                       # mshr miss rate for ReadExReq accesses
system.l2cache.ReadExReq_avg_mshr_miss_latency::.cpu.data 68068.588385                       # average ReadExReq mshr miss latency
system.l2cache.ReadExReq_avg_mshr_miss_latency::total 68068.588385                       # average ReadExReq mshr miss latency
system.l2cache.ReadSharedReq_hits::.cpu.inst          398                       # number of ReadSharedReq hits
system.l2cache.ReadSharedReq_hits::.cpu.data         1652                       # number of ReadSharedReq hits
system.l2cache.ReadSharedReq_hits::.cpu.dcache.prefetcher         3945                       # number of ReadSharedReq hits
system.l2cache.ReadSharedReq_hits::total         5995                       # number of ReadSharedReq hits
system.l2cache.ReadSharedReq_misses::.cpu.inst          561                       # number of ReadSharedReq misses
system.l2cache.ReadSharedReq_misses::.cpu.data        25459                       # number of ReadSharedReq misses
system.l2cache.ReadSharedReq_misses::.cpu.dcache.prefetcher        32475                       # number of ReadSharedReq misses
system.l2cache.ReadSharedReq_misses::total        58495                       # number of ReadSharedReq misses
system.l2cache.ReadSharedReq_miss_latency::.cpu.inst     39598800                       # number of ReadSharedReq miss cycles
system.l2cache.ReadSharedReq_miss_latency::.cpu.data   1751499600                       # number of ReadSharedReq miss cycles
system.l2cache.ReadSharedReq_miss_latency::.cpu.dcache.prefetcher   2316813237                       # number of ReadSharedReq miss cycles
system.l2cache.ReadSharedReq_miss_latency::total   4107911637                       # number of ReadSharedReq miss cycles
system.l2cache.ReadSharedReq_accesses::.cpu.inst          959                       # number of ReadSharedReq accesses(hits+misses)
system.l2cache.ReadSharedReq_accesses::.cpu.data        27111                       # number of ReadSharedReq accesses(hits+misses)
system.l2cache.ReadSharedReq_accesses::.cpu.dcache.prefetcher        36420                       # number of ReadSharedReq accesses(hits+misses)
system.l2cache.ReadSharedReq_accesses::total        64490                       # number of ReadSharedReq accesses(hits+misses)
system.l2cache.ReadSharedReq_miss_rate::.cpu.inst     0.584984                       # miss rate for ReadSharedReq accesses
system.l2cache.ReadSharedReq_miss_rate::.cpu.data     0.939065                       # miss rate for ReadSharedReq accesses
system.l2cache.ReadSharedReq_miss_rate::.cpu.dcache.prefetcher     0.891680                       # miss rate for ReadSharedReq accesses
system.l2cache.ReadSharedReq_miss_rate::total     0.907040                       # miss rate for ReadSharedReq accesses
system.l2cache.ReadSharedReq_avg_miss_latency::.cpu.inst 70586.096257                       # average ReadSharedReq miss latency
system.l2cache.ReadSharedReq_avg_miss_latency::.cpu.data 68796.873404                       # average ReadSharedReq miss latency
system.l2cache.ReadSharedReq_avg_miss_latency::.cpu.dcache.prefetcher 71341.439169                       # average ReadSharedReq miss latency
system.l2cache.ReadSharedReq_avg_miss_latency::total 70226.714027                       # average ReadSharedReq miss latency
system.l2cache.ReadSharedReq_mshr_hits::.cpu.data            3                       # number of ReadSharedReq MSHR hits
system.l2cache.ReadSharedReq_mshr_hits::.cpu.dcache.prefetcher          116                       # number of ReadSharedReq MSHR hits
system.l2cache.ReadSharedReq_mshr_hits::total          119                       # number of ReadSharedReq MSHR hits
system.l2cache.ReadSharedReq_mshr_misses::.cpu.inst          561                       # number of ReadSharedReq MSHR misses
system.l2cache.ReadSharedReq_mshr_misses::.cpu.data        25456                       # number of ReadSharedReq MSHR misses
system.l2cache.ReadSharedReq_mshr_misses::.cpu.dcache.prefetcher        32359                       # number of ReadSharedReq MSHR misses
system.l2cache.ReadSharedReq_mshr_misses::total        58376                       # number of ReadSharedReq MSHR misses
system.l2cache.ReadSharedReq_mshr_miss_latency::.cpu.inst     35110800                       # number of ReadSharedReq MSHR miss cycles
system.l2cache.ReadSharedReq_mshr_miss_latency::.cpu.data   1547746000                       # number of ReadSharedReq MSHR miss cycles
system.l2cache.ReadSharedReq_mshr_miss_latency::.cpu.dcache.prefetcher   2053982173                       # number of ReadSharedReq MSHR miss cycles
system.l2cache.ReadSharedReq_mshr_miss_latency::total   3636838973                       # number of ReadSharedReq MSHR miss cycles
system.l2cache.ReadSharedReq_mshr_miss_rate::.cpu.inst     0.584984                       # mshr miss rate for ReadSharedReq accesses
system.l2cache.ReadSharedReq_mshr_miss_rate::.cpu.data     0.938955                       # mshr miss rate for ReadSharedReq accesses
system.l2cache.ReadSharedReq_mshr_miss_rate::.cpu.dcache.prefetcher     0.888495                       # mshr miss rate for ReadSharedReq accesses
system.l2cache.ReadSharedReq_mshr_miss_rate::total     0.905195                       # mshr miss rate for ReadSharedReq accesses
system.l2cache.ReadSharedReq_avg_mshr_miss_latency::.cpu.inst 62586.096257                       # average ReadSharedReq mshr miss latency
system.l2cache.ReadSharedReq_avg_mshr_miss_latency::.cpu.data 60800.832810                       # average ReadSharedReq mshr miss latency
system.l2cache.ReadSharedReq_avg_mshr_miss_latency::.cpu.dcache.prefetcher 63474.834606                       # average ReadSharedReq mshr miss latency
system.l2cache.ReadSharedReq_avg_mshr_miss_latency::total 62300.242788                       # average ReadSharedReq mshr miss latency
system.l2cache.prefetcher.pwrStateResidencyTicks::UNDEFINED   2498634400                       # Cumulative time (in ticks) in various power states
system.l2cache.tags.pwrStateResidencyTicks::UNDEFINED   2498634400                       # Cumulative time (in ticks) in various power states
system.l2cache.tags.tagsinuse                    4096                       # Cycle average of tags in use
system.l2cache.tags.total_refs                 151259                       # Total number of references to valid blocks.
system.l2cache.tags.sampled_refs                73056                       # Sample count of references to valid blocks.
system.l2cache.tags.avg_refs                 2.070453                       # Average number of references to valid blocks.
system.l2cache.tags.warmup_cycle                    0                       # Cycle when the warmup percentage was hit.
system.l2cache.tags.occ_blocks::.writebacks     0.280255                       # Average occupied blocks per requestor
system.l2cache.tags.occ_blocks::.cpu.inst    13.952232                       # Average occupied blocks per requestor
system.l2cache.tags.occ_blocks::.cpu.data  2185.043004                       # Average occupied blocks per requestor
system.l2cache.tags.occ_blocks::.cpu.dcache.prefetcher  1603.895472                       # Average occupied blocks per requestor
system.l2cache.tags.occ_blocks::.l2cache.prefetcher   292.829037                       # Average occupied blocks per requestor
system.l2cache.tags.occ_percent::.writebacks     0.000068                       # Average percentage of cache occupancy
system.l2cache.tags.occ_percent::.cpu.inst     0.003406                       # Average percentage of cache occupancy
system.l2cache.tags.occ_percent::.cpu.data     0.533458                       # Average percentage of cache occupancy
system.l2cache.tags.occ_percent::.cpu.dcache.prefetcher     0.391576                       # Average percentage of cache occupancy
system.l2cache.tags.occ_percent::.l2cache.prefetcher     0.071491                       # Average percentage of cache occupancy
system.l2cache.tags.occ_percent::total              1                       # Average percentage of cache occupancy
system.l2cache.tags.occ_task_id_blocks::1022           61                       # Occupied blocks per task id
system.l2cache.tags.occ_task_id_blocks::1024         4035                       # Occupied blocks per task id
system.l2cache.tags.age_task_id_blocks_1022::0           20                       # Occupied blocks per task id
system.l2cache.tags.age_task_id_blocks_1022::1           39                       # Occupied blocks per task id
system.l2cache.tags.age_task_id_blocks_1022::2            2                       # Occupied blocks per task id
system.l2cache.tags.age_task_id_blocks_1024::0          211                       # Occupied blocks per task id
system.l2cache.tags.age_task_id_blocks_1024::1         1397                       # Occupied blocks per task id
system.l2cache.tags.age_task_id_blocks_1024::2         2427                       # Occupied blocks per task id
system.l2cache.tags.occ_task_id_percent::1022     0.014893                       # Percentage of cache occupancy per task id
system.l2cache.tags.occ_task_id_percent::1024     0.985107                       # Percentage of cache occupancy per task id
system.l2cache.tags.tag_accesses              1178600                       # Number of tag accesses
system.l2cache.tags.data_accesses             1178600                       # Number of data accesses
system.mem_ctrl.pwrStateResidencyTicks::UNDEFINED   2498634400                       # Cumulative time (in ticks) in various power states
system.mem_ctrl.bytes_read::.cpu.inst           35904                       # Number of bytes read from this memory
system.mem_ctrl.bytes_read::.cpu.data         1931200                       # Number of bytes read from this memory
system.mem_ctrl.bytes_read::.cpu.dcache.prefetcher      2070976                       # Number of bytes read from this memory
system.mem_ctrl.bytes_read::.l2cache.prefetcher       373440                       # Number of bytes read from this memory
system.mem_ctrl.bytes_read::total             4411520                       # Number of bytes read from this memory
system.mem_ctrl.bytes_inst_read::.cpu.inst        35904                       # Number of instructions bytes read from this memory
system.mem_ctrl.bytes_inst_read::total          35904                       # Number of instructions bytes read from this memory
system.mem_ctrl.bytes_written::.writebacks       985856                       # Number of bytes written to this memory
system.mem_ctrl.bytes_written::total           985856                       # Number of bytes written to this memory
system.mem_ctrl.num_reads::.cpu.inst              561                       # Number of read requests responded to by this memory
system.mem_ctrl.num_reads::.cpu.data            30175                       # Number of read requests responded to by this memory
system.mem_ctrl.num_reads::.cpu.dcache.prefetcher        32359                       # Number of read requests responded to by this memory
system.mem_ctrl.num_reads::.l2cache.prefetcher         5835                       # Number of read requests responded to by this memory
system.mem_ctrl.num_reads::total                68930                       # Number of read requests responded to by this memory
system.mem_ctrl.num_writes::.writebacks         15404                       # Number of write requests responded to by this memory
system.mem_ctrl.num_writes::total               15404                       # Number of write requests responded to by this memory
system.mem_ctrl.bw_read::.cpu.inst           14369449                       # Total read bandwidth from this memory (bytes/s)
system.mem_ctrl.bw_read::.cpu.data          772902190                       # Total read bandwidth from this memory (bytes/s)
system.mem_ctrl.bw_read::.cpu.dcache.prefetcher    828843147                       # Total read bandwidth from this memory (bytes/s)
system.mem_ctrl.bw_read::.l2cache.prefetcher    149457640                       # Total read bandwidth from this memory (bytes/s)
system.mem_ctrl.bw_read::total             1765572426                       # Total read bandwidth from this memory (bytes/s)
system.mem_ctrl.bw_inst_read::.cpu.inst      14369449                       # Instruction read bandwidth from this memory (bytes/s)
system.mem_ctrl.bw_inst_read::total          14369449                       # Instruction read bandwidth from this memory (bytes/s)
system.mem_ctrl.bw_write::.writebacks       394557923                       # Write bandwidth from this memory (bytes/s)
system.mem_ctrl.bw_write::total             394557923                       # Write bandwidth from this memory (bytes/s)
system.mem_ctrl.bw_total::.writebacks       394557923                       # Total bandwidth to/from this memory (bytes/s)
system.mem_ctrl.bw_total::.cpu.inst          14369449                       # Total bandwidth to/from this memory (bytes/s)
system.mem_ctrl.bw_total::.cpu.data         772902190                       # Total bandwidth to/from this memory (bytes/s)
system.mem_ctrl.bw_total::.cpu.dcache.prefetcher    828843147                       # Total bandwidth to/from this memory (bytes/s)
system.mem_ctrl.bw_total::.l2cache.prefetcher    149457640                       # Total bandwidth to/from this memory (bytes/s)
system.mem_ctrl.bw_total::total            2160130350                       # Total bandwidth to/from this memory (bytes/s)

---------- End Simulation Statistics   ----------
