
---------- Begin Simulation Statistics ----------
final_tick                                 1153198000                       # Number of ticks from beginning of simulation (restored from checkpoints and never reset)
host_inst_rate                                 182255                       # Simulator instruction rate (inst/s)
host_mem_usage                                4406844                       # Number of bytes of host memory used
host_op_rate                                   322994                       # Simulator op (including micro ops) rate (op/s)
host_seconds                                    12.45                       # Real time elapsed on the host
host_tick_rate                               92632340                       # Simulator tick rate (ticks/s)
sim_freq                                 1000000000000                       # Frequency of simulated ticks
sim_insts                                     2268910                       # Number of instructions simulated
sim_ops                                       4021010                       # Number of ops (including micro ops) simulated
sim_seconds                                  0.001153                       # Number of seconds simulated
sim_ticks                                  1153198000                       # Number of ticks simulated
system.cpu.branchPred.BTBCorrect                    0                       # Number of correct BTB predictions (this stat may not work properly.
system.cpu.branchPred.BTBHitPct              0.000000                       # BTB Hit Percentage
system.cpu.branchPred.BTBHits                       0                       # Number of BTB hits
system.cpu.branchPred.BTBLookups               465858                       # Number of BTB lookups
system.cpu.branchPred.RASInCorrect                  6                       # Number of incorrect RAS predictions.
system.cpu.branchPred.condIncorrect             24240                       # Number of conditional branches incorrect
system.cpu.branchPred.condPredicted            495843                       # Number of conditional branches predicted
system.cpu.branchPred.indirectHits             253679                       # Number of indirect target hits.
system.cpu.branchPred.indirectLookups          465858                       # Number of indirect predictor lookups.
system.cpu.branchPred.indirectMisses           212179                       # Number of indirect misses.
system.cpu.branchPred.lookups                  528817                       # Number of BP lookups
system.cpu.branchPred.usedRAS                   14689                       # Number of times the RAS was used to get a target.
system.cpu.branchPredindirectMispredicted        12118                       # Number of mispredicted indirect branches.
system.cpu.cc_regfile_reads                   2601837                       # number of cc regfile reads
system.cpu.cc_regfile_writes                  2051684                       # number of cc regfile writes
system.cpu.commit.amos                              0                       # Number of atomic instructions committed
system.cpu.commit.branchMispredicts             24348                       # The number of times a branch was mispredicted
system.cpu.commit.branches                     383763                       # Number of branches committed
system.cpu.commit.bw_lim_events                671458                       # number cycles where commit BW limit reached
system.cpu.commit.commitNonSpecStalls             760                       # The number of times commit has been forced to stall to communicate backwards
system.cpu.commit.commitSquashedInsts          892624                       # The number of squashed insts skipped by commit
system.cpu.commit.committedInsts              2268910                       # Number of instructions committed
system.cpu.commit.committedOps                4021010                       # Number of ops (including micro ops) committed
system.cpu.commit.committed_per_cycle::samples      2476625                       # Number of insts commited each cycle
system.cpu.commit.committed_per_cycle::mean     1.623585                       # Number of insts commited each cycle
system.cpu.commit.committed_per_cycle::stdev     1.733701                       # Number of insts commited each cycle
system.cpu.commit.committed_per_cycle::underflows            0      0.00%      0.00% # Number of insts commited each cycle
system.cpu.commit.committed_per_cycle::0      1165497     47.06%     47.06% # Number of insts commited each cycle
system.cpu.commit.committed_per_cycle::1       195646      7.90%     54.96% # Number of insts commited each cycle
system.cpu.commit.committed_per_cycle::2       192540      7.77%     62.73% # Number of insts commited each cycle
system.cpu.commit.committed_per_cycle::3       251484     10.15%     72.89% # Number of insts commited each cycle
system.cpu.commit.committed_per_cycle::4       671458     27.11%    100.00% # Number of insts commited each cycle
system.cpu.commit.committed_per_cycle::overflows            0      0.00%    100.00% # Number of insts commited each cycle
system.cpu.commit.committed_per_cycle::min_value            0                       # Number of insts commited each cycle
system.cpu.commit.committed_per_cycle::max_value            4                       # Number of insts commited each cycle
system.cpu.commit.committed_per_cycle::total      2476625                       # Number of insts commited each cycle
system.cpu.commit.fp_insts                     100191                       # Number of committed floating point instructions.
system.cpu.commit.function_calls                12819                       # Number of function calls committed.
system.cpu.commit.int_insts                   3945002                       # Number of committed integer instructions.
system.cpu.commit.loads                        546268                       # Number of loads committed
system.cpu.commit.membars                           1                       # Number of memory barriers committed
system.cpu.commit.op_class_0::No_OpClass        22568      0.56%      0.56% # Class of committed instruction
system.cpu.commit.op_class_0::IntAlu          3138065     78.04%     78.60% # Class of committed instruction
system.cpu.commit.op_class_0::IntMult            2424      0.06%     78.66% # Class of committed instruction
system.cpu.commit.op_class_0::IntDiv            37658      0.94%     79.60% # Class of committed instruction
system.cpu.commit.op_class_0::FloatAdd           3917      0.10%     79.70% # Class of committed instruction
system.cpu.commit.op_class_0::FloatCmp              0      0.00%     79.70% # Class of committed instruction
system.cpu.commit.op_class_0::FloatCvt           1248      0.03%     79.73% # Class of committed instruction
system.cpu.commit.op_class_0::FloatMult             0      0.00%     79.73% # Class of committed instruction
system.cpu.commit.op_class_0::FloatMultAcc            0      0.00%     79.73% # Class of committed instruction
system.cpu.commit.op_class_0::FloatDiv              0      0.00%     79.73% # Class of committed instruction
system.cpu.commit.op_class_0::FloatMisc             0      0.00%     79.73% # Class of committed instruction
system.cpu.commit.op_class_0::FloatSqrt             0      0.00%     79.73% # Class of committed instruction
system.cpu.commit.op_class_0::SimdAdd            6270      0.16%     79.88% # Class of committed instruction
system.cpu.commit.op_class_0::SimdAddAcc            0      0.00%     79.88% # Class of committed instruction
system.cpu.commit.op_class_0::SimdAlu           15460      0.38%     80.27% # Class of committed instruction
system.cpu.commit.op_class_0::SimdCmp               0      0.00%     80.27% # Class of committed instruction
system.cpu.commit.op_class_0::SimdCvt           16350      0.41%     80.68% # Class of committed instruction
system.cpu.commit.op_class_0::SimdMisc          15875      0.39%     81.07% # Class of committed instruction
system.cpu.commit.op_class_0::SimdMult              0      0.00%     81.07% # Class of committed instruction
system.cpu.commit.op_class_0::SimdMultAcc            0      0.00%     81.07% # Class of committed instruction
system.cpu.commit.op_class_0::SimdShift          1316      0.03%     81.10% # Class of committed instruction
system.cpu.commit.op_class_0::SimdShiftAcc            0      0.00%     81.10% # Class of committed instruction
system.cpu.commit.op_class_0::SimdDiv               0      0.00%     81.10% # Class of committed instruction
system.cpu.commit.op_class_0::SimdSqrt              0      0.00%     81.10% # Class of committed instruction
system.cpu.commit.op_class_0::SimdFloatAdd            0      0.00%     81.10% # Class of committed instruction
system.cpu.commit.op_class_0::SimdFloatAlu            0      0.00%     81.10% # Class of committed instruction
system.cpu.commit.op_class_0::SimdFloatCmp            0      0.00%     81.10% # Class of committed instruction
system.cpu.commit.op_class_0::SimdFloatCvt            0      0.00%     81.10% # Class of committed instruction
system.cpu.commit.op_class_0::SimdFloatDiv            0      0.00%     81.10% # Class of committed instruction
system.cpu.commit.op_class_0::SimdFloatMisc            0      0.00%     81.10% # Class of committed instruction
system.cpu.commit.op_class_0::SimdFloatMult            0      0.00%     81.10% # Class of committed instruction
system.cpu.commit.op_class_0::SimdFloatMultAcc            0      0.00%     81.10% # Class of committed instruction
system.cpu.commit.op_class_0::SimdFloatSqrt            0      0.00%     81.10% # Class of committed instruction
system.cpu.commit.op_class_0::SimdReduceAdd            0      0.00%     81.10% # Class of committed instruction
system.cpu.commit.op_class_0::SimdReduceAlu            0      0.00%     81.10% # Class of committed instruction
system.cpu.commit.op_class_0::SimdReduceCmp            0      0.00%     81.10% # Class of committed instruction
system.cpu.commit.op_class_0::SimdFloatReduceAdd            0      0.00%     81.10% # Class of committed instruction
system.cpu.commit.op_class_0::SimdFloatReduceCmp            0      0.00%     81.10% # Class of committed instruction
system.cpu.commit.op_class_0::SimdAes               0      0.00%     81.10% # Class of committed instruction
system.cpu.commit.op_class_0::SimdAesMix            0      0.00%     81.10% # Class of committed instruction
system.cpu.commit.op_class_0::SimdSha1Hash            0      0.00%     81.10% # Class of committed instruction
system.cpu.commit.op_class_0::SimdSha1Hash2            0      0.00%     81.10% # Class of committed instruction
system.cpu.commit.op_class_0::SimdSha256Hash            0      0.00%     81.10% # Class of committed instruction
system.cpu.commit.op_class_0::SimdSha256Hash2            0      0.00%     81.10% # Class of committed instruction
system.cpu.commit.op_class_0::SimdShaSigma2            0      0.00%     81.10% # Class of committed instruction
system.cpu.commit.op_class_0::SimdShaSigma3            0      0.00%     81.10% # Class of committed instruction
system.cpu.commit.op_class_0::SimdPredAlu            0      0.00%     81.10% # Class of committed instruction
system.cpu.commit.op_class_0::MemRead          523814     13.03%     94.13% # Class of committed instruction
system.cpu.commit.op_class_0::MemWrite         200236      4.98%     99.11% # Class of committed instruction
system.cpu.commit.op_class_0::FloatMemRead        22454      0.56%     99.67% # Class of committed instruction
system.cpu.commit.op_class_0::FloatMemWrite        13355      0.33%    100.00% # Class of committed instruction
system.cpu.commit.op_class_0::IprAccess             0      0.00%    100.00% # Class of committed instruction
system.cpu.commit.op_class_0::InstPrefetch            0      0.00%    100.00% # Class of committed instruction
system.cpu.commit.op_class_0::total           4021010                       # Class of committed instruction
system.cpu.commit.refs                         759859                       # Number of memory references committed
system.cpu.commit.swp_count                         0                       # Number of s/w prefetches committed
system.cpu.commit.vec_insts                         0                       # Number of committed Vector instructions.
system.cpu.committedInsts                     2268910                       # Number of Instructions Simulated
system.cpu.committedOps                       4021010                       # Number of Ops (including micro ops) Simulated
system.cpu.cpi                               1.270652                       # CPI: Cycles Per Instruction
system.cpu.cpi_total                         1.270652                       # CPI: Total CPI of All Threads
system.cpu.dcache.prefetcher.num_hwpf_issued         8059                       # number of hwpf issued
system.cpu.dcache.prefetcher.pfBufferHit        33760                       # number of redundant prefetches already in prefetch queue
system.cpu.dcache.prefetcher.pfIdentified        48835                       # number of prefetch candidates identified
system.cpu.dcache.prefetcher.pfInCache              0                       # number of redundant prefetches already in cache/mshr dropped
system.cpu.dcache.prefetcher.pfRemovedFull            0                       # number of prefetches dropped due to prefetch queue size
system.cpu.dcache.prefetcher.pfSpanPage          4525                       # number of prefetches that crossed the page
system.cpu.decode.BlockedCycles               1022633                       # Number of cycles decode is blocked
system.cpu.decode.DecodedInsts                5130103                       # Number of instructions handled by decode
system.cpu.decode.IdleCycles                   325603                       # Number of cycles decode is idle
system.cpu.decode.RunCycles                   1257977                       # Number of cycles decode is running
system.cpu.decode.SquashCycles                  24417                       # Number of cycles decode is squashing
system.cpu.decode.UnblockCycles                 89308                       # Number of cycles decode is unblocking
system.cpu.dtb.rdAccesses                      629460                       # TLB accesses on read requests
system.cpu.dtb.rdMisses                          2041                       # TLB misses on read requests
system.cpu.dtb.wrAccesses                      232899                       # TLB accesses on write requests
system.cpu.dtb.wrMisses                           156                       # TLB misses on write requests
system.cpu.fetch.Branches                      528817                       # Number of branches that fetch encountered
system.cpu.fetch.CacheLines                    265041                       # Number of cache lines fetched
system.cpu.fetch.Cycles                       2337383                       # Number of cycles fetch has run and was not squashing or blocked
system.cpu.fetch.IcacheSquashes                  4670                       # Number of outstanding Icache misses that were squashed
system.cpu.fetch.Insts                        3039606                       # Number of instructions fetch has processed
system.cpu.fetch.MiscStallCycles                  134                       # Number of cycles fetch has spent waiting on interrupts, or bad addresses, or out of MSHRs
system.cpu.fetch.PendingQuiesceStallCycles            6                       # Number of stall cycles due to pending quiesce instructions
system.cpu.fetch.PendingTrapStallCycles           723                       # Number of stall cycles due to pending traps
system.cpu.fetch.SquashCycles                   48834                       # Number of cycles fetch has spent squashing
system.cpu.fetch.branchRate                  0.183426                       # Number of branch fetches per cycle
system.cpu.fetch.icacheStallCycles             357275                       # Number of cycles fetch is stalled on an Icache miss
system.cpu.fetch.predictedBranches             268368                       # Number of branches that fetch has predicted taken
system.cpu.fetch.rate                        1.054322                       # Number of inst fetches per cycle
system.cpu.fetch.rateDist::samples            2719938                       # Number of instructions fetched each cycle (Total)
system.cpu.fetch.rateDist::mean              1.988333                       # Number of instructions fetched each cycle (Total)
system.cpu.fetch.rateDist::stdev             1.929474                       # Number of instructions fetched each cycle (Total)
system.cpu.fetch.rateDist::underflows               0      0.00%      0.00% # Number of instructions fetched each cycle (Total)
system.cpu.fetch.rateDist::0                  1253881     46.10%     46.10% # Number of instructions fetched each cycle (Total)
system.cpu.fetch.rateDist::1                    80872      2.97%     49.07% # Number of instructions fetched each cycle (Total)
system.cpu.fetch.rateDist::2                    64810      2.38%     51.46% # Number of instructions fetched each cycle (Total)
system.cpu.fetch.rateDist::3                    83850      3.08%     54.54% # Number of instructions fetched each cycle (Total)
system.cpu.fetch.rateDist::4                  1236525     45.46%    100.00% # Number of instructions fetched each cycle (Total)
system.cpu.fetch.rateDist::overflows                0      0.00%    100.00% # Number of instructions fetched each cycle (Total)
system.cpu.fetch.rateDist::min_value                0                       # Number of instructions fetched each cycle (Total)
system.cpu.fetch.rateDist::max_value                4                       # Number of instructions fetched each cycle (Total)
system.cpu.fetch.rateDist::total              2719938                       # Number of instructions fetched each cycle (Total)
system.cpu.fp_regfile_reads                    166670                       # number of floating regfile reads
system.cpu.fp_regfile_writes                    90665                       # number of floating regfile writes
system.cpu.fuPool.fu_ticks_busy::IntALU(0)    238008400                       # Total ticks fu was busy
system.cpu.fuPool.fu_ticks_busy::IntALU(1)    238008400                       # Total ticks fu was busy
system.cpu.fuPool.fu_ticks_busy::IntALU(2)    238008000                       # Total ticks fu was busy
system.cpu.fuPool.fu_ticks_busy::IntALU(3)    238008000                       # Total ticks fu was busy
system.cpu.fuPool.fu_ticks_busy::IntALU(4)    238008000                       # Total ticks fu was busy
system.cpu.fuPool.fu_ticks_busy::IntALU(5)    238008000                       # Total ticks fu was busy
system.cpu.fuPool.fu_ticks_busy::IntMultDiv(0)      8787600                       # Total ticks fu was busy
system.cpu.fuPool.fu_ticks_busy::IntMultDiv(1)      8787200                       # Total ticks fu was busy
system.cpu.fuPool.fu_ticks_busy::FP_ALU(0)       688000                       # Total ticks fu was busy
system.cpu.fuPool.fu_ticks_busy::FP_ALU(1)       688000                       # Total ticks fu was busy
system.cpu.fuPool.fu_ticks_busy::FP_ALU(2)       687600                       # Total ticks fu was busy
system.cpu.fuPool.fu_ticks_busy::FP_ALU(3)       687600                       # Total ticks fu was busy
system.cpu.fuPool.fu_ticks_busy::FP_MultDiv(0)            0                       # Total ticks fu was busy
system.cpu.fuPool.fu_ticks_busy::FP_MultDiv(1)            0                       # Total ticks fu was busy
system.cpu.fuPool.fu_ticks_busy::SIMD_Unit(0)      6330400                       # Total ticks fu was busy
system.cpu.fuPool.fu_ticks_busy::SIMD_Unit(1)      6459200                       # Total ticks fu was busy
system.cpu.fuPool.fu_ticks_busy::SIMD_Unit(2)      6368000                       # Total ticks fu was busy
system.cpu.fuPool.fu_ticks_busy::SIMD_Unit(3)      6378000                       # Total ticks fu was busy
system.cpu.fuPool.fu_ticks_busy::PredALU(0)            0                       # Total ticks fu was busy
system.cpu.fuPool.fu_ticks_busy::RdWrPort(0)     87626000                       # Total ticks fu was busy
system.cpu.fuPool.fu_ticks_busy::RdWrPort(1)     87726000                       # Total ticks fu was busy
system.cpu.fuPool.fu_ticks_busy::RdWrPort(2)     87698000                       # Total ticks fu was busy
system.cpu.fuPool.fu_ticks_busy::RdWrPort(3)     87784000                       # Total ticks fu was busy
system.cpu.fuPool.fu_ticks_busy::IprPort(0)            0                       # Total ticks fu was busy
system.cpu.fuPool.fu_ticks_busy::total     1824744400                       # Total ticks fu was busy
system.cpu.icache.prefetcher.num_hwpf_issued            0                       # number of hwpf issued
system.cpu.icache.prefetcher.pfBufferHit            0                       # number of redundant prefetches already in prefetch queue
system.cpu.icache.prefetcher.pfIdentified            0                       # number of prefetch candidates identified
system.cpu.icache.prefetcher.pfInCache              0                       # number of redundant prefetches already in cache/mshr dropped
system.cpu.icache.prefetcher.pfRemovedFull            0                       # number of prefetches dropped due to prefetch queue size
system.cpu.icache.prefetcher.pfSpanPage             0                       # number of prefetches that crossed the page
system.cpu.idleCycles                          163058                       # Total number of cycles that the CPU has spent unscheduled due to idling
system.cpu.iew.branchMispredicts                28758                       # Number of branch mispredicts detected at execute
system.cpu.iew.exec_branches                   414273                       # Number of branches executed
system.cpu.iew.exec_nop                             0                       # number of nop insts executed
system.cpu.iew.exec_rate                     1.580405                       # Inst execution rate
system.cpu.iew.exec_refs                       864161                       # number of memory reference insts executed
system.cpu.iew.exec_stores                     232885                       # Number of stores executed
system.cpu.iew.exec_swp                             0                       # number of swp insts executed
system.cpu.iew.iewBlockCycles                  691943                       # Number of cycles IEW is blocking
system.cpu.iew.iewDispLoadInsts                661816                       # Number of dispatched load instructions
system.cpu.iew.iewDispNonSpecInsts                963                       # Number of dispatched non-speculative instructions
system.cpu.iew.iewDispSquashedInsts               588                       # Number of squashed instructions skipped by dispatch
system.cpu.iew.iewDispStoreInsts               243116                       # Number of dispatched store instructions
system.cpu.iew.iewDispatchedInsts             4913592                       # Number of instructions dispatched to IQ
system.cpu.iew.iewExecLoadInsts                631276                       # Number of load instructions executed
system.cpu.iew.iewExecSquashedInsts             34567                       # Number of squashed instructions skipped in execute
system.cpu.iew.iewExecutedInsts               4556302                       # Number of executed instructions
system.cpu.iew.iewIQFullEvents                   3369                       # Number of times the IQ has become full, causing a stall
system.cpu.iew.iewIdleCycles                        0                       # Number of cycles IEW is idle
system.cpu.iew.iewLSQFullEvents                  8705                       # Number of times the LSQ has become full, causing a stall
system.cpu.iew.iewSquashCycles                  24417                       # Number of cycles IEW is squashing
system.cpu.iew.iewUnblockCycles                 15054                       # Number of cycles IEW is unblocking
system.cpu.iew.lsq.thread0.blockedLoads             0                       # Number of blocked loads due to partial load-store forwarding
system.cpu.iew.lsq.thread0.cacheBlocked           621                       # Number of times an access to memory failed due to the cache being blocked
system.cpu.iew.lsq.thread0.forwLoads            46952                       # Number of loads that had data forwarded from stores
system.cpu.iew.lsq.thread0.ignoredResponses          230                       # Number of memory responses ignored because the instruction is squashed
system.cpu.iew.lsq.thread0.invAddrLoads             0                       # Number of loads ignored due to an invalid address
system.cpu.iew.lsq.thread0.invAddrSwpfs             0                       # Number of software prefetches ignored due to an invalid address
system.cpu.iew.lsq.thread0.memOrderViolation           84                       # Number of memory ordering violations
system.cpu.iew.lsq.thread0.rescheduledLoads            7                       # Number of loads that were rescheduled
system.cpu.iew.lsq.thread0.squashedLoads       115546                       # Number of loads squashed
system.cpu.iew.lsq.thread0.squashedStores        29524                       # Number of stores squashed
system.cpu.iew.memOrderViolationEvents             84                       # Number of memory order violations
system.cpu.iew.predictedNotTakenIncorrect        20682                       # Number of branches that were predicted not taken incorrectly
system.cpu.iew.predictedTakenIncorrect           8076                       # Number of branches that were predicted taken incorrectly
system.cpu.iew.wb_consumers                   6295531                       # num instructions consuming a value
system.cpu.iew.wb_count                       4534381                       # cumulative count of insts written-back
system.cpu.iew.wb_fanout                     0.569658                       # average fanout of values written-back
system.cpu.iew.wb_producers                   3586300                       # num instructions producing a value
system.cpu.iew.wb_rate                       1.572802                       # insts written-back per cycle
system.cpu.iew.wb_sent                        4541266                       # cumulative count of insts sent to commit
system.cpu.int_regfile_reads                  7031846                       # number of integer regfile reads
system.cpu.int_regfile_writes                 3872271                       # number of integer regfile writes
system.cpu.ipc                               0.786997                       # IPC: Instructions Per Cycle
system.cpu.ipc_total                         0.786997                       # IPC: Total IPC of All Threads
system.cpu.iq.FU_type_0::No_OpClass             29008      0.63%      0.63% # Type of FU issued
system.cpu.iq.FU_type_0::IntAlu               3570124     77.77%     78.40% # Type of FU issued
system.cpu.iq.FU_type_0::IntMult                 2463      0.05%     78.45% # Type of FU issued
system.cpu.iq.FU_type_0::IntDiv                 41474      0.90%     79.35% # Type of FU issued
system.cpu.iq.FU_type_0::FloatAdd                5592      0.12%     79.48% # Type of FU issued
system.cpu.iq.FU_type_0::FloatCmp                   0      0.00%     79.48% # Type of FU issued
system.cpu.iq.FU_type_0::FloatCvt                1286      0.03%     79.50% # Type of FU issued
system.cpu.iq.FU_type_0::FloatMult                  0      0.00%     79.50% # Type of FU issued
system.cpu.iq.FU_type_0::FloatMultAcc               0      0.00%     79.50% # Type of FU issued
system.cpu.iq.FU_type_0::FloatDiv                   0      0.00%     79.50% # Type of FU issued
system.cpu.iq.FU_type_0::FloatMisc                  0      0.00%     79.50% # Type of FU issued
system.cpu.iq.FU_type_0::FloatSqrt                  0      0.00%     79.50% # Type of FU issued
system.cpu.iq.FU_type_0::SimdAdd                 7016      0.15%     79.66% # Type of FU issued
system.cpu.iq.FU_type_0::SimdAddAcc                 0      0.00%     79.66% # Type of FU issued
system.cpu.iq.FU_type_0::SimdAlu                19462      0.42%     80.08% # Type of FU issued
system.cpu.iq.FU_type_0::SimdCmp                    0      0.00%     80.08% # Type of FU issued
system.cpu.iq.FU_type_0::SimdCvt                18322      0.40%     80.48% # Type of FU issued
system.cpu.iq.FU_type_0::SimdMisc               16562      0.36%     80.84% # Type of FU issued
system.cpu.iq.FU_type_0::SimdMult                   0      0.00%     80.84% # Type of FU issued
system.cpu.iq.FU_type_0::SimdMultAcc                0      0.00%     80.84% # Type of FU issued
system.cpu.iq.FU_type_0::SimdShift               2477      0.05%     80.89% # Type of FU issued
system.cpu.iq.FU_type_0::SimdShiftAcc               0      0.00%     80.89% # Type of FU issued
system.cpu.iq.FU_type_0::SimdDiv                    0      0.00%     80.89% # Type of FU issued
system.cpu.iq.FU_type_0::SimdSqrt                   0      0.00%     80.89% # Type of FU issued
system.cpu.iq.FU_type_0::SimdFloatAdd               0      0.00%     80.89% # Type of FU issued
system.cpu.iq.FU_type_0::SimdFloatAlu               0      0.00%     80.89% # Type of FU issued
system.cpu.iq.FU_type_0::SimdFloatCmp               0      0.00%     80.89% # Type of FU issued
system.cpu.iq.FU_type_0::SimdFloatCvt               0      0.00%     80.89% # Type of FU issued
system.cpu.iq.FU_type_0::SimdFloatDiv               0      0.00%     80.89% # Type of FU issued
system.cpu.iq.FU_type_0::SimdFloatMisc              0      0.00%     80.89% # Type of FU issued
system.cpu.iq.FU_type_0::SimdFloatMult              0      0.00%     80.89% # Type of FU issued
system.cpu.iq.FU_type_0::SimdFloatMultAcc            0      0.00%     80.89% # Type of FU issued
system.cpu.iq.FU_type_0::SimdFloatSqrt              0      0.00%     80.89% # Type of FU issued
system.cpu.iq.FU_type_0::SimdReduceAdd              0      0.00%     80.89% # Type of FU issued
system.cpu.iq.FU_type_0::SimdReduceAlu              0      0.00%     80.89% # Type of FU issued
system.cpu.iq.FU_type_0::SimdReduceCmp              0      0.00%     80.89% # Type of FU issued
system.cpu.iq.FU_type_0::SimdFloatReduceAdd            0      0.00%     80.89% # Type of FU issued
system.cpu.iq.FU_type_0::SimdFloatReduceCmp            0      0.00%     80.89% # Type of FU issued
system.cpu.iq.FU_type_0::SimdAes                    0      0.00%     80.89% # Type of FU issued
system.cpu.iq.FU_type_0::SimdAesMix                 0      0.00%     80.89% # Type of FU issued
system.cpu.iq.FU_type_0::SimdSha1Hash               0      0.00%     80.89% # Type of FU issued
system.cpu.iq.FU_type_0::SimdSha1Hash2              0      0.00%     80.89% # Type of FU issued
system.cpu.iq.FU_type_0::SimdSha256Hash             0      0.00%     80.89% # Type of FU issued
system.cpu.iq.FU_type_0::SimdSha256Hash2            0      0.00%     80.89% # Type of FU issued
system.cpu.iq.FU_type_0::SimdShaSigma2              0      0.00%     80.89% # Type of FU issued
system.cpu.iq.FU_type_0::SimdShaSigma3              0      0.00%     80.89% # Type of FU issued
system.cpu.iq.FU_type_0::SimdPredAlu                0      0.00%     80.89% # Type of FU issued
system.cpu.iq.FU_type_0::MemRead               612708     13.35%     94.24% # Type of FU issued
system.cpu.iq.FU_type_0::MemWrite              220712      4.81%     99.05% # Type of FU issued
system.cpu.iq.FU_type_0::FloatMemRead           28938      0.63%     99.68% # Type of FU issued
system.cpu.iq.FU_type_0::FloatMemWrite          14729      0.32%    100.00% # Type of FU issued
system.cpu.iq.FU_type_0::IprAccess                  0      0.00%    100.00% # Type of FU issued
system.cpu.iq.FU_type_0::InstPrefetch               0      0.00%    100.00% # Type of FU issued
system.cpu.iq.FU_type_0::total                4590873                       # Type of FU issued
system.cpu.iq.fp_alu_accesses                  118535                       # Number of floating point alu accesses
system.cpu.iq.fp_inst_queue_reads              238523                       # Number of floating instruction queue reads
system.cpu.iq.fp_inst_queue_wakeup_accesses       114885                       # Number of floating instruction queue wakeup accesses
system.cpu.iq.fp_inst_queue_writes             163895                       # Number of floating instruction queue writes
system.cpu.iq.fu_busy_cnt                           0                       # FU busy when requested
system.cpu.iq.fu_busy_rate                          0                       # FU busy rate (busy events/executed inst)
system.cpu.iq.fu_full::No_OpClass                   0                       # attempts to use FU when none available
system.cpu.iq.fu_full::IntAlu                       0                       # attempts to use FU when none available
system.cpu.iq.fu_full::IntMult                      0                       # attempts to use FU when none available
system.cpu.iq.fu_full::IntDiv                       0                       # attempts to use FU when none available
system.cpu.iq.fu_full::FloatAdd                     0                       # attempts to use FU when none available
system.cpu.iq.fu_full::FloatCmp                     0                       # attempts to use FU when none available
system.cpu.iq.fu_full::FloatCvt                     0                       # attempts to use FU when none available
system.cpu.iq.fu_full::FloatMult                    0                       # attempts to use FU when none available
system.cpu.iq.fu_full::FloatMultAcc                 0                       # attempts to use FU when none available
system.cpu.iq.fu_full::FloatDiv                     0                       # attempts to use FU when none available
system.cpu.iq.fu_full::FloatMisc                    0                       # attempts to use FU when none available
system.cpu.iq.fu_full::FloatSqrt                    0                       # attempts to use FU when none available
system.cpu.iq.fu_full::SimdAdd                      0                       # attempts to use FU when none available
system.cpu.iq.fu_full::SimdAddAcc                   0                       # attempts to use FU when none available
system.cpu.iq.fu_full::SimdAlu                      0                       # attempts to use FU when none available
system.cpu.iq.fu_full::SimdCmp                      0                       # attempts to use FU when none available
system.cpu.iq.fu_full::SimdCvt                      0                       # attempts to use FU when none available
system.cpu.iq.fu_full::SimdMisc                     0                       # attempts to use FU when none available
system.cpu.iq.fu_full::SimdMult                     0                       # attempts to use FU when none available
system.cpu.iq.fu_full::SimdMultAcc                  0                       # attempts to use FU when none available
system.cpu.iq.fu_full::SimdShift                    0                       # attempts to use FU when none available
system.cpu.iq.fu_full::SimdShiftAcc                 0                       # attempts to use FU when none available
system.cpu.iq.fu_full::SimdDiv                      0                       # attempts to use FU when none available
system.cpu.iq.fu_full::SimdSqrt                     0                       # attempts to use FU when none available
system.cpu.iq.fu_full::SimdFloatAdd                 0                       # attempts to use FU when none available
system.cpu.iq.fu_full::SimdFloatAlu                 0                       # attempts to use FU when none available
system.cpu.iq.fu_full::SimdFloatCmp                 0                       # attempts to use FU when none available
system.cpu.iq.fu_full::SimdFloatCvt                 0                       # attempts to use FU when none available
system.cpu.iq.fu_full::SimdFloatDiv                 0                       # attempts to use FU when none available
system.cpu.iq.fu_full::SimdFloatMisc                0                       # attempts to use FU when none available
system.cpu.iq.fu_full::SimdFloatMult                0                       # attempts to use FU when none available
system.cpu.iq.fu_full::SimdFloatMultAcc             0                       # attempts to use FU when none available
system.cpu.iq.fu_full::SimdFloatSqrt                0                       # attempts to use FU when none available
system.cpu.iq.fu_full::SimdReduceAdd                0                       # attempts to use FU when none available
system.cpu.iq.fu_full::SimdReduceAlu                0                       # attempts to use FU when none available
system.cpu.iq.fu_full::SimdReduceCmp                0                       # attempts to use FU when none available
system.cpu.iq.fu_full::SimdFloatReduceAdd            0                       # attempts to use FU when none available
system.cpu.iq.fu_full::SimdFloatReduceCmp            0                       # attempts to use FU when none available
system.cpu.iq.fu_full::SimdAes                      0                       # attempts to use FU when none available
system.cpu.iq.fu_full::SimdAesMix                   0                       # attempts to use FU when none available
system.cpu.iq.fu_full::SimdSha1Hash                 0                       # attempts to use FU when none available
system.cpu.iq.fu_full::SimdSha1Hash2                0                       # attempts to use FU when none available
system.cpu.iq.fu_full::SimdSha256Hash               0                       # attempts to use FU when none available
system.cpu.iq.fu_full::SimdSha256Hash2              0                       # attempts to use FU when none available
system.cpu.iq.fu_full::SimdShaSigma2                0                       # attempts to use FU when none available
system.cpu.iq.fu_full::SimdShaSigma3                0                       # attempts to use FU when none available
system.cpu.iq.fu_full::SimdPredAlu                  0                       # attempts to use FU when none available
system.cpu.iq.fu_full::MemRead                      0                       # attempts to use FU when none available
system.cpu.iq.fu_full::MemWrite                     0                       # attempts to use FU when none available
system.cpu.iq.fu_full::FloatMemRead                 0                       # attempts to use FU when none available
system.cpu.iq.fu_full::FloatMemWrite                0                       # attempts to use FU when none available
system.cpu.iq.fu_full::IprAccess                    0                       # attempts to use FU when none available
system.cpu.iq.fu_full::InstPrefetch                 0                       # attempts to use FU when none available
system.cpu.iq.int_alu_accesses                4443330                       # Number of integer alu accesses
system.cpu.iq.int_inst_queue_reads           11681611                       # Number of integer instruction queue reads
system.cpu.iq.int_inst_queue_wakeup_accesses      4419496                       # Number of integer instruction queue wakeup accesses
system.cpu.iq.int_inst_queue_writes           5642351                       # Number of integer instruction queue writes
system.cpu.iq.iqInstsAdded                    4912434                       # Number of instructions added to the IQ (excludes non-spec)
system.cpu.iq.iqInstsIssued                   4590873                       # Number of instructions issued
system.cpu.iq.iqNonSpecInstsAdded                1158                       # Number of non-speculative instructions added to the IQ
system.cpu.iq.iqSquashedInstsExamined          892571                       # Number of squashed instructions iterated over during squash; mainly for profiling
system.cpu.iq.iqSquashedInstsIssued             18454                       # Number of squashed instructions issued
system.cpu.iq.iqSquashedNonSpecRemoved            398                       # Number of squashed non-spec instructions that were removed
system.cpu.iq.iqSquashedOperandsExamined      1330423                       # Number of squashed operands that are examined and possibly removed from graph
system.cpu.iq.issued_per_cycle::samples       2719938                       # Number of insts issued each cycle
system.cpu.iq.issued_per_cycle::mean         1.687859                       # Number of insts issued each cycle
system.cpu.iq.issued_per_cycle::stdev        1.672027                       # Number of insts issued each cycle
system.cpu.iq.issued_per_cycle::underflows            0      0.00%      0.00% # Number of insts issued each cycle
system.cpu.iq.issued_per_cycle::0             1173051     43.13%     43.13% # Number of insts issued each cycle
system.cpu.iq.issued_per_cycle::1              186186      6.85%     49.97% # Number of insts issued each cycle
system.cpu.iq.issued_per_cycle::2              331110     12.17%     62.15% # Number of insts issued each cycle
system.cpu.iq.issued_per_cycle::3              375897     13.82%     75.97% # Number of insts issued each cycle
system.cpu.iq.issued_per_cycle::4              653694     24.03%    100.00% # Number of insts issued each cycle
system.cpu.iq.issued_per_cycle::overflows            0      0.00%    100.00% # Number of insts issued each cycle
system.cpu.iq.issued_per_cycle::min_value            0                       # Number of insts issued each cycle
system.cpu.iq.issued_per_cycle::max_value            4                       # Number of insts issued each cycle
system.cpu.iq.issued_per_cycle::total         2719938                       # Number of insts issued each cycle
system.cpu.iq.rate                           1.592397                       # Inst issue rate
system.cpu.iq.vec_alu_accesses                      0                       # Number of vector alu accesses
system.cpu.iq.vec_inst_queue_reads                  0                       # Number of vector instruction queue reads
system.cpu.iq.vec_inst_queue_wakeup_accesses            0                       # Number of vector instruction queue wakeup accesses
system.cpu.iq.vec_inst_queue_writes                 0                       # Number of vector instruction queue writes
system.cpu.itb.rdAccesses                           0                       # TLB accesses on read requests
system.cpu.itb.rdMisses                             0                       # TLB misses on read requests
system.cpu.itb.wrAccesses                      265168                       # TLB accesses on write requests
system.cpu.itb.wrMisses                           377                       # TLB misses on write requests
system.cpu.memDep0.conflictingLoads             12902                       # Number of conflicting loads.
system.cpu.memDep0.conflictingStores             5906                       # Number of conflicting stores.
system.cpu.memDep0.insertedLoads               661816                       # Number of loads inserted to the mem dependence unit.
system.cpu.memDep0.insertedStores              243116                       # Number of stores inserted to the mem dependence unit.
system.cpu.misc_regfile_reads                 1731386                       # number of misc regfile reads
system.cpu.misc_regfile_writes                    702                       # number of misc regfile writes
system.cpu.numCycles                          2882996                       # number of cpu cycles simulated
system.cpu.numWorkItemsCompleted                    0                       # number of work items this cpu completed
system.cpu.numWorkItemsStarted                      0                       # number of work items this cpu started
system.cpu.process.numSyscalls                     57                       # Number of system calls
system.cpu.rename.BlockCycles                  836351                       # Number of cycles rename is blocking
system.cpu.rename.CommittedMaps               5386057                       # Number of HB maps that are committed
system.cpu.rename.FullRegisterEvents              168                       # Number of times there has been no free registers
system.cpu.rename.IQFullEvents                  47482                       # Number of times rename has blocked due to IQ full
system.cpu.rename.IdleCycles                   376148                       # Number of cycles rename is idle
system.cpu.rename.LQFullEvents                  16979                       # Number of times rename has blocked due to LQ full
system.cpu.rename.ROBFullEvents                  4185                       # Number of times rename has blocked due to ROB full
system.cpu.rename.RenameLookups              13178171                       # Number of register rename lookups that rename has made
system.cpu.rename.RenamedInsts                5055285                       # Number of instructions processed by rename
system.cpu.rename.RenamedOperands             6790338                       # Number of destination operands rename has renamed
system.cpu.rename.RunCycles                   1288311                       # Number of cycles rename is running
system.cpu.rename.SQFullEvents                  72707                       # Number of times rename has blocked due to SQ full
system.cpu.rename.SquashCycles                  24417                       # Number of cycles rename is squashing
system.cpu.rename.UnblockCycles                174581                       # Number of cycles rename is unblocking
system.cpu.rename.UndoneMaps                  1404255                       # Number of HB maps that are undone due to squashing
system.cpu.rename.fp_rename_lookups            205151                       # Number of floating rename lookups
system.cpu.rename.int_rename_lookups          7981467                       # Number of integer rename lookups
system.cpu.rename.serializeStallCycles          20130                       # count of cycles rename stalled for serializing inst
system.cpu.rename.serializingInsts                899                       # count of serializing insts renamed
system.cpu.rename.skidInsts                    208731                       # count of insts added to the skid buffer
system.cpu.rename.tempSerializingInsts            954                       # count of temporary serializing insts renamed
system.cpu.rob.rob_reads                      6718801                       # The number of ROB reads
system.cpu.rob.rob_writes                    10071473                       # The number of ROB writes
system.cpu.timesIdled                            1636                       # Number of times that the entire CPU went into an idle state and unscheduled itself
system.l2bus.snoop_filter.hit_multi_requests           12                       # Number of requests hitting in the snoop filter with multiple (>1) holders of the requested data.
system.l2bus.snoop_filter.hit_multi_snoops            1                       # Number of snoops hitting in the snoop filter with multiple (>1) holders of the requested data.
system.l2bus.snoop_filter.hit_single_requests        18541                       # Number of requests hitting in the snoop filter with a single holder of the requested data.
system.l2bus.snoop_filter.hit_single_snoops          438                       # Number of snoops hitting in the snoop filter with a single holder of the requested data.
system.l2bus.snoop_filter.tot_requests          38362                       # Total number of requests made to the snoop filter.
system.l2bus.snoop_filter.tot_snoops              439                       # Total number of snoops made to the snoop filter.
system.l2cache.prefetcher.num_hwpf_issued          711                       # number of hwpf issued
system.l2cache.prefetcher.pfBufferHit               0                       # number of redundant prefetches already in prefetch queue
system.l2cache.prefetcher.pfIdentified            711                       # number of prefetch candidates identified
system.l2cache.prefetcher.pfInCache                 0                       # number of redundant prefetches already in cache/mshr dropped
system.l2cache.prefetcher.pfRemovedFull             0                       # number of prefetches dropped due to prefetch queue size
system.l2cache.prefetcher.pfSpanPage              133                       # number of prefetches that crossed the page
system.membus.snoop_filter.hit_multi_requests            0                       # Number of requests hitting in the snoop filter with multiple (>1) holders of the requested data.
system.membus.snoop_filter.hit_multi_snoops            0                       # Number of snoops hitting in the snoop filter with multiple (>1) holders of the requested data.
system.membus.snoop_filter.hit_single_requests         9457                       # Number of requests hitting in the snoop filter with a single holder of the requested data.
system.membus.snoop_filter.hit_single_snoops            0                       # Number of snoops hitting in the snoop filter with a single holder of the requested data.
system.membus.snoop_filter.tot_requests         23035                       # Total number of requests made to the snoop filter.
system.membus.snoop_filter.tot_snoops               0                       # Total number of snoops made to the snoop filter.
system.membus.pwrStateResidencyTicks::UNDEFINED   1153198000                       # Cumulative time (in ticks) in various power states
system.membus.trans_dist::ReadResp              12219                       # Transaction distribution
system.membus.trans_dist::WritebackDirty         1349                       # Transaction distribution
system.membus.trans_dist::CleanEvict             8108                       # Transaction distribution
system.membus.trans_dist::ReadExReq              1359                       # Transaction distribution
system.membus.trans_dist::ReadExResp             1359                       # Transaction distribution
system.membus.trans_dist::ReadSharedReq         12219                       # Transaction distribution
system.membus.pkt_count_system.l2cache.mem_side::system.mem_ctrl.port        36613                       # Packet count per connected master and slave (bytes)
system.membus.pkt_count_system.l2cache.mem_side::total        36613                       # Packet count per connected master and slave (bytes)
system.membus.pkt_count::total                  36613                       # Packet count per connected master and slave (bytes)
system.membus.pkt_size_system.l2cache.mem_side::system.mem_ctrl.port       955328                       # Cumulative packet size per connected master and slave (bytes)
system.membus.pkt_size_system.l2cache.mem_side::total       955328                       # Cumulative packet size per connected master and slave (bytes)
system.membus.pkt_size::total                  955328                       # Cumulative packet size per connected master and slave (bytes)
system.membus.snoops                                0                       # Total snoops (count)
system.membus.snoopTraffic                          0                       # Total snoop traffic (bytes)
system.membus.snoop_fanout::samples             13578                       # Request fanout histogram
system.membus.snoop_fanout::mean                    0                       # Request fanout histogram
system.membus.snoop_fanout::stdev                   0                       # Request fanout histogram
system.membus.snoop_fanout::underflows              0      0.00%      0.00% # Request fanout histogram
system.membus.snoop_fanout::0                   13578    100.00%    100.00% # Request fanout histogram
system.membus.snoop_fanout::1                       0      0.00%    100.00% # Request fanout histogram
system.membus.snoop_fanout::overflows               0      0.00%    100.00% # Request fanout histogram
system.membus.snoop_fanout::min_value               0                       # Request fanout histogram
system.membus.snoop_fanout::max_value               0                       # Request fanout histogram
system.membus.snoop_fanout::total               13578                       # Request fanout histogram
system.membus.reqLayer2.occupancy            11400978                       # Layer occupancy (ticks)
system.membus.reqLayer2.utilization               1.0                       # Layer utilization (%)
system.membus.respLayer0.occupancy           29471422                       # Layer occupancy (ticks)
system.membus.respLayer0.utilization              2.6                       # Layer utilization (%)
system.l2bus.pwrStateResidencyTicks::UNDEFINED   1153198000                       # Cumulative time (in ticks) in various power states
system.l2bus.trans_dist::ReadResp               17704                       # Transaction distribution
system.l2bus.trans_dist::WritebackDirty          4140                       # Transaction distribution
system.l2bus.trans_dist::CleanEvict             23948                       # Transaction distribution
system.l2bus.trans_dist::HardPFReq                992                       # Transaction distribution
system.l2bus.trans_dist::ReadExReq               2117                       # Transaction distribution
system.l2bus.trans_dist::ReadExResp              2117                       # Transaction distribution
system.l2bus.trans_dist::ReadSharedReq          17704                       # Transaction distribution
system.l2bus.pkt_count_system.cpu.icache.mem_side::system.l2cache.cpu_side         8490                       # Packet count per connected master and slave (bytes)
system.l2bus.pkt_count_system.cpu.dcache.mem_side::system.l2cache.cpu_side        49691                       # Packet count per connected master and slave (bytes)
system.l2bus.pkt_count::total                   58181                       # Packet count per connected master and slave (bytes)
system.l2bus.pkt_size_system.cpu.icache.mem_side::system.l2cache.cpu_side       186496                       # Cumulative packet size per connected master and slave (bytes)
system.l2bus.pkt_size_system.cpu.dcache.mem_side::system.l2cache.cpu_side      1260544                       # Cumulative packet size per connected master and slave (bytes)
system.l2bus.pkt_size::total                  1447040                       # Cumulative packet size per connected master and slave (bytes)
system.l2bus.snoops                             10541                       # Total snoops (count)
system.l2bus.snoopTraffic                       86464                       # Total snoop traffic (bytes)
system.l2bus.snoop_fanout::samples              30360                       # Request fanout histogram
system.l2bus.snoop_fanout::mean              0.014888                       # Request fanout histogram
system.l2bus.snoop_fanout::stdev             0.121378                       # Request fanout histogram
system.l2bus.snoop_fanout::underflows               0      0.00%      0.00% # Request fanout histogram
system.l2bus.snoop_fanout::0                    29909     98.51%     98.51% # Request fanout histogram
system.l2bus.snoop_fanout::1                      450      1.48%    100.00% # Request fanout histogram
system.l2bus.snoop_fanout::2                        1      0.00%    100.00% # Request fanout histogram
system.l2bus.snoop_fanout::overflows                0      0.00%    100.00% # Request fanout histogram
system.l2bus.snoop_fanout::min_value                0                       # Request fanout histogram
system.l2bus.snoop_fanout::max_value                2                       # Request fanout histogram
system.l2bus.snoop_fanout::total                30360                       # Request fanout histogram
system.l2bus.respLayer1.occupancy            20287197                       # Layer occupancy (ticks)
system.l2bus.respLayer1.utilization               1.8                       # Layer utilization (%)
system.l2bus.reqLayer0.occupancy             18978742                       # Layer occupancy (ticks)
system.l2bus.reqLayer0.utilization                1.6                       # Layer utilization (%)
system.l2bus.respLayer0.occupancy             3500397                       # Layer occupancy (ticks)
system.l2bus.respLayer0.utilization               0.3                       # Layer utilization (%)
system.clk_domain.clock                           400                       # Clock period in ticks
system.clk_domain.voltage_domain.voltage            1                       # Voltage in Volts
system.cpu.pwrStateResidencyTicks::ON      1153198000                       # Cumulative time (in ticks) in various power states
system.cpu.icache.pwrStateResidencyTicks::UNDEFINED   1153198000                       # Cumulative time (in ticks) in various power states
system.cpu.icache.demand_hits::.cpu.inst       261398                       # number of demand (read+write) hits
system.cpu.icache.demand_hits::total           261398                       # number of demand (read+write) hits
system.cpu.icache.overall_hits::.cpu.inst       261398                       # number of overall hits
system.cpu.icache.overall_hits::total          261398                       # number of overall hits
system.cpu.icache.demand_misses::.cpu.inst         3642                       # number of demand (read+write) misses
system.cpu.icache.demand_misses::total           3642                       # number of demand (read+write) misses
system.cpu.icache.overall_misses::.cpu.inst         3642                       # number of overall misses
system.cpu.icache.overall_misses::total          3642                       # number of overall misses
system.cpu.icache.demand_miss_latency::.cpu.inst    179438000                       # number of demand (read+write) miss cycles
system.cpu.icache.demand_miss_latency::total    179438000                       # number of demand (read+write) miss cycles
system.cpu.icache.overall_miss_latency::.cpu.inst    179438000                       # number of overall miss cycles
system.cpu.icache.overall_miss_latency::total    179438000                       # number of overall miss cycles
system.cpu.icache.demand_accesses::.cpu.inst       265040                       # number of demand (read+write) accesses
system.cpu.icache.demand_accesses::total       265040                       # number of demand (read+write) accesses
system.cpu.icache.overall_accesses::.cpu.inst       265040                       # number of overall (read+write) accesses
system.cpu.icache.overall_accesses::total       265040                       # number of overall (read+write) accesses
system.cpu.icache.demand_miss_rate::.cpu.inst     0.013741                       # miss rate for demand accesses
system.cpu.icache.demand_miss_rate::total     0.013741                       # miss rate for demand accesses
system.cpu.icache.overall_miss_rate::.cpu.inst     0.013741                       # miss rate for overall accesses
system.cpu.icache.overall_miss_rate::total     0.013741                       # miss rate for overall accesses
system.cpu.icache.demand_avg_miss_latency::.cpu.inst 49269.082921                       # average overall miss latency
system.cpu.icache.demand_avg_miss_latency::total 49269.082921                       # average overall miss latency
system.cpu.icache.overall_avg_miss_latency::.cpu.inst 49269.082921                       # average overall miss latency
system.cpu.icache.overall_avg_miss_latency::total 49269.082921                       # average overall miss latency
system.cpu.icache.blocked_cycles::no_mshrs           39                       # number of cycles access was blocked
system.cpu.icache.blocked_cycles::no_targets            0                       # number of cycles access was blocked
system.cpu.icache.blocked::no_mshrs                 2                       # number of cycles access was blocked
system.cpu.icache.blocked::no_targets               0                       # number of cycles access was blocked
system.cpu.icache.avg_blocked_cycles::no_mshrs    19.500000                       # average number of cycles each access was blocked
system.cpu.icache.avg_blocked_cycles::no_targets          nan                       # average number of cycles each access was blocked
system.cpu.icache.demand_mshr_hits::.cpu.inst          726                       # number of demand (read+write) MSHR hits
system.cpu.icache.demand_mshr_hits::total          726                       # number of demand (read+write) MSHR hits
system.cpu.icache.overall_mshr_hits::.cpu.inst          726                       # number of overall MSHR hits
system.cpu.icache.overall_mshr_hits::total          726                       # number of overall MSHR hits
system.cpu.icache.demand_mshr_misses::.cpu.inst         2916                       # number of demand (read+write) MSHR misses
system.cpu.icache.demand_mshr_misses::total         2916                       # number of demand (read+write) MSHR misses
system.cpu.icache.overall_mshr_misses::.cpu.inst         2916                       # number of overall MSHR misses
system.cpu.icache.overall_mshr_misses::total         2916                       # number of overall MSHR misses
system.cpu.icache.demand_mshr_miss_latency::.cpu.inst    144828800                       # number of demand (read+write) MSHR miss cycles
system.cpu.icache.demand_mshr_miss_latency::total    144828800                       # number of demand (read+write) MSHR miss cycles
system.cpu.icache.overall_mshr_miss_latency::.cpu.inst    144828800                       # number of overall MSHR miss cycles
system.cpu.icache.overall_mshr_miss_latency::total    144828800                       # number of overall MSHR miss cycles
system.cpu.icache.demand_mshr_miss_rate::.cpu.inst     0.011002                       # mshr miss rate for demand accesses
system.cpu.icache.demand_mshr_miss_rate::total     0.011002                       # mshr miss rate for demand accesses
system.cpu.icache.overall_mshr_miss_rate::.cpu.inst     0.011002                       # mshr miss rate for overall accesses
system.cpu.icache.overall_mshr_miss_rate::total     0.011002                       # mshr miss rate for overall accesses
system.cpu.icache.demand_avg_mshr_miss_latency::.cpu.inst 49666.941015                       # average overall mshr miss latency
system.cpu.icache.demand_avg_mshr_miss_latency::total 49666.941015                       # average overall mshr miss latency
system.cpu.icache.overall_avg_mshr_miss_latency::.cpu.inst 49666.941015                       # average overall mshr miss latency
system.cpu.icache.overall_avg_mshr_miss_latency::total 49666.941015                       # average overall mshr miss latency
system.cpu.icache.replacements                   2660                       # number of replacements
system.cpu.icache.ReadReq_hits::.cpu.inst       261398                       # number of ReadReq hits
system.cpu.icache.ReadReq_hits::total          261398                       # number of ReadReq hits
system.cpu.icache.ReadReq_misses::.cpu.inst         3642                       # number of ReadReq misses
system.cpu.icache.ReadReq_misses::total          3642                       # number of ReadReq misses
system.cpu.icache.ReadReq_miss_latency::.cpu.inst    179438000                       # number of ReadReq miss cycles
system.cpu.icache.ReadReq_miss_latency::total    179438000                       # number of ReadReq miss cycles
system.cpu.icache.ReadReq_accesses::.cpu.inst       265040                       # number of ReadReq accesses(hits+misses)
system.cpu.icache.ReadReq_accesses::total       265040                       # number of ReadReq accesses(hits+misses)
system.cpu.icache.ReadReq_miss_rate::.cpu.inst     0.013741                       # miss rate for ReadReq accesses
system.cpu.icache.ReadReq_miss_rate::total     0.013741                       # miss rate for ReadReq accesses
system.cpu.icache.ReadReq_avg_miss_latency::.cpu.inst 49269.082921                       # average ReadReq miss latency
system.cpu.icache.ReadReq_avg_miss_latency::total 49269.082921                       # average ReadReq miss latency
system.cpu.icache.ReadReq_mshr_hits::.cpu.inst          726                       # number of ReadReq MSHR hits
system.cpu.icache.ReadReq_mshr_hits::total          726                       # number of ReadReq MSHR hits
system.cpu.icache.ReadReq_mshr_misses::.cpu.inst         2916                       # number of ReadReq MSHR misses
system.cpu.icache.ReadReq_mshr_misses::total         2916                       # number of ReadReq MSHR misses
system.cpu.icache.ReadReq_mshr_miss_latency::.cpu.inst    144828800                       # number of ReadReq MSHR miss cycles
system.cpu.icache.ReadReq_mshr_miss_latency::total    144828800                       # number of ReadReq MSHR miss cycles
system.cpu.icache.ReadReq_mshr_miss_rate::.cpu.inst     0.011002                       # mshr miss rate for ReadReq accesses
system.cpu.icache.ReadReq_mshr_miss_rate::total     0.011002                       # mshr miss rate for ReadReq accesses
system.cpu.icache.ReadReq_avg_mshr_miss_latency::.cpu.inst 49666.941015                       # average ReadReq mshr miss latency
system.cpu.icache.ReadReq_avg_mshr_miss_latency::total 49666.941015                       # average ReadReq mshr miss latency
system.cpu.icache.prefetcher.pwrStateResidencyTicks::UNDEFINED   1153198000                       # Cumulative time (in ticks) in various power states
system.cpu.icache.tags.pwrStateResidencyTicks::UNDEFINED   1153198000                       # Cumulative time (in ticks) in various power states
system.cpu.icache.tags.tagsinuse           253.601256                       # Cycle average of tags in use
system.cpu.icache.tags.total_refs              245577                       # Total number of references to valid blocks.
system.cpu.icache.tags.sampled_refs              2660                       # Sample count of references to valid blocks.
system.cpu.icache.tags.avg_refs             92.322180                       # Average number of references to valid blocks.
system.cpu.icache.tags.warmup_cycle             66400                       # Cycle when the warmup percentage was hit.
system.cpu.icache.tags.occ_blocks::.cpu.inst   253.601256                       # Average occupied blocks per requestor
system.cpu.icache.tags.occ_percent::.cpu.inst     0.990630                       # Average percentage of cache occupancy
system.cpu.icache.tags.occ_percent::total     0.990630                       # Average percentage of cache occupancy
system.cpu.icache.tags.occ_task_id_blocks::1024          256                       # Occupied blocks per task id
system.cpu.icache.tags.age_task_id_blocks_1024::0          103                       # Occupied blocks per task id
system.cpu.icache.tags.age_task_id_blocks_1024::1          101                       # Occupied blocks per task id
system.cpu.icache.tags.age_task_id_blocks_1024::2           50                       # Occupied blocks per task id
system.cpu.icache.tags.age_task_id_blocks_1024::3            2                       # Occupied blocks per task id
system.cpu.icache.tags.occ_task_id_percent::1024            1                       # Percentage of cache occupancy per task id
system.cpu.icache.tags.tag_accesses            532996                       # Number of tag accesses
system.cpu.icache.tags.data_accesses           532996                       # Number of data accesses
system.cpu.dtb.walker.pwrStateResidencyTicks::UNDEFINED   1153198000                       # Cumulative time (in ticks) in various power states
system.cpu.interrupts.clk_domain.clock           6400                       # Clock period in ticks
system.cpu.itb.walker.pwrStateResidencyTicks::UNDEFINED   1153198000                       # Cumulative time (in ticks) in various power states
system.cpu.dcache.pwrStateResidencyTicks::UNDEFINED   1153198000                       # Cumulative time (in ticks) in various power states
system.cpu.dcache.demand_hits::.cpu.data       760173                       # number of demand (read+write) hits
system.cpu.dcache.demand_hits::total           760173                       # number of demand (read+write) hits
system.cpu.dcache.overall_hits::.cpu.data       760173                       # number of overall hits
system.cpu.dcache.overall_hits::total          760173                       # number of overall hits
system.cpu.dcache.demand_misses::.cpu.data        34788                       # number of demand (read+write) misses
system.cpu.dcache.demand_misses::total          34788                       # number of demand (read+write) misses
system.cpu.dcache.overall_misses::.cpu.data        34788                       # number of overall misses
system.cpu.dcache.overall_misses::total         34788                       # number of overall misses
system.cpu.dcache.demand_miss_latency::.cpu.data   1680227200                       # number of demand (read+write) miss cycles
system.cpu.dcache.demand_miss_latency::total   1680227200                       # number of demand (read+write) miss cycles
system.cpu.dcache.overall_miss_latency::.cpu.data   1680227200                       # number of overall miss cycles
system.cpu.dcache.overall_miss_latency::total   1680227200                       # number of overall miss cycles
system.cpu.dcache.demand_accesses::.cpu.data       794961                       # number of demand (read+write) accesses
system.cpu.dcache.demand_accesses::total       794961                       # number of demand (read+write) accesses
system.cpu.dcache.overall_accesses::.cpu.data       794961                       # number of overall (read+write) accesses
system.cpu.dcache.overall_accesses::total       794961                       # number of overall (read+write) accesses
system.cpu.dcache.demand_miss_rate::.cpu.data     0.043761                       # miss rate for demand accesses
system.cpu.dcache.demand_miss_rate::total     0.043761                       # miss rate for demand accesses
system.cpu.dcache.overall_miss_rate::.cpu.data     0.043761                       # miss rate for overall accesses
system.cpu.dcache.overall_miss_rate::total     0.043761                       # miss rate for overall accesses
system.cpu.dcache.demand_avg_miss_latency::.cpu.data 48299.045648                       # average overall miss latency
system.cpu.dcache.demand_avg_miss_latency::total 48299.045648                       # average overall miss latency
system.cpu.dcache.overall_avg_miss_latency::.cpu.data 48299.045648                       # average overall miss latency
system.cpu.dcache.overall_avg_miss_latency::total 48299.045648                       # average overall miss latency
system.cpu.dcache.blocked_cycles::no_mshrs        29309                       # number of cycles access was blocked
system.cpu.dcache.blocked_cycles::no_targets          138                       # number of cycles access was blocked
system.cpu.dcache.blocked::no_mshrs               769                       # number of cycles access was blocked
system.cpu.dcache.blocked::no_targets               1                       # number of cycles access was blocked
system.cpu.dcache.avg_blocked_cycles::no_mshrs    38.113134                       # average number of cycles each access was blocked
system.cpu.dcache.avg_blocked_cycles::no_targets          138                       # average number of cycles each access was blocked
system.cpu.dcache.unused_prefetches              1726                       # number of HardPF blocks evicted w/o reference
system.cpu.dcache.writebacks::.writebacks         2791                       # number of writebacks
system.cpu.dcache.writebacks::total              2791                       # number of writebacks
system.cpu.dcache.demand_mshr_hits::.cpu.data        22168                       # number of demand (read+write) MSHR hits
system.cpu.dcache.demand_mshr_hits::total        22168                       # number of demand (read+write) MSHR hits
system.cpu.dcache.overall_mshr_hits::.cpu.data        22168                       # number of overall MSHR hits
system.cpu.dcache.overall_mshr_hits::total        22168                       # number of overall MSHR hits
system.cpu.dcache.demand_mshr_misses::.cpu.data        12620                       # number of demand (read+write) MSHR misses
system.cpu.dcache.demand_mshr_misses::total        12620                       # number of demand (read+write) MSHR misses
system.cpu.dcache.overall_mshr_misses::.cpu.data        12620                       # number of overall MSHR misses
system.cpu.dcache.overall_mshr_misses::.cpu.dcache.prefetcher         4285                       # number of overall MSHR misses
system.cpu.dcache.overall_mshr_misses::total        16905                       # number of overall MSHR misses
system.cpu.dcache.demand_mshr_miss_latency::.cpu.data    576816800                       # number of demand (read+write) MSHR miss cycles
system.cpu.dcache.demand_mshr_miss_latency::total    576816800                       # number of demand (read+write) MSHR miss cycles
system.cpu.dcache.overall_mshr_miss_latency::.cpu.data    576816800                       # number of overall MSHR miss cycles
system.cpu.dcache.overall_mshr_miss_latency::.cpu.dcache.prefetcher    247925011                       # number of overall MSHR miss cycles
system.cpu.dcache.overall_mshr_miss_latency::total    824741811                       # number of overall MSHR miss cycles
system.cpu.dcache.demand_mshr_miss_rate::.cpu.data     0.015875                       # mshr miss rate for demand accesses
system.cpu.dcache.demand_mshr_miss_rate::total     0.015875                       # mshr miss rate for demand accesses
system.cpu.dcache.overall_mshr_miss_rate::.cpu.data     0.015875                       # mshr miss rate for overall accesses
system.cpu.dcache.overall_mshr_miss_rate::.cpu.dcache.prefetcher          inf                       # mshr miss rate for overall accesses
system.cpu.dcache.overall_mshr_miss_rate::total     0.021265                       # mshr miss rate for overall accesses
system.cpu.dcache.demand_avg_mshr_miss_latency::.cpu.data 45706.561014                       # average overall mshr miss latency
system.cpu.dcache.demand_avg_mshr_miss_latency::total 45706.561014                       # average overall mshr miss latency
system.cpu.dcache.overall_avg_mshr_miss_latency::.cpu.data 45706.561014                       # average overall mshr miss latency
system.cpu.dcache.overall_avg_mshr_miss_latency::.cpu.dcache.prefetcher 57858.812369                       # average overall mshr miss latency
system.cpu.dcache.overall_avg_mshr_miss_latency::total 48786.856610                       # average overall mshr miss latency
system.cpu.dcache.replacements                  15881                       # number of replacements
system.cpu.dcache.ReadReq_hits::.cpu.data       548728                       # number of ReadReq hits
system.cpu.dcache.ReadReq_hits::total          548728                       # number of ReadReq hits
system.cpu.dcache.ReadReq_misses::.cpu.data        32634                       # number of ReadReq misses
system.cpu.dcache.ReadReq_misses::total         32634                       # number of ReadReq misses
system.cpu.dcache.ReadReq_miss_latency::.cpu.data   1573950000                       # number of ReadReq miss cycles
system.cpu.dcache.ReadReq_miss_latency::total   1573950000                       # number of ReadReq miss cycles
system.cpu.dcache.ReadReq_accesses::.cpu.data       581362                       # number of ReadReq accesses(hits+misses)
system.cpu.dcache.ReadReq_accesses::total       581362                       # number of ReadReq accesses(hits+misses)
system.cpu.dcache.ReadReq_miss_rate::.cpu.data     0.056134                       # miss rate for ReadReq accesses
system.cpu.dcache.ReadReq_miss_rate::total     0.056134                       # miss rate for ReadReq accesses
system.cpu.dcache.ReadReq_avg_miss_latency::.cpu.data 48230.373230                       # average ReadReq miss latency
system.cpu.dcache.ReadReq_avg_miss_latency::total 48230.373230                       # average ReadReq miss latency
system.cpu.dcache.ReadReq_mshr_hits::.cpu.data        22129                       # number of ReadReq MSHR hits
system.cpu.dcache.ReadReq_mshr_hits::total        22129                       # number of ReadReq MSHR hits
system.cpu.dcache.ReadReq_mshr_misses::.cpu.data        10505                       # number of ReadReq MSHR misses
system.cpu.dcache.ReadReq_mshr_misses::total        10505                       # number of ReadReq MSHR misses
system.cpu.dcache.ReadReq_mshr_miss_latency::.cpu.data    473670400                       # number of ReadReq MSHR miss cycles
system.cpu.dcache.ReadReq_mshr_miss_latency::total    473670400                       # number of ReadReq MSHR miss cycles
system.cpu.dcache.ReadReq_mshr_miss_rate::.cpu.data     0.018070                       # mshr miss rate for ReadReq accesses
system.cpu.dcache.ReadReq_mshr_miss_rate::total     0.018070                       # mshr miss rate for ReadReq accesses
system.cpu.dcache.ReadReq_avg_mshr_miss_latency::.cpu.data 45089.995240                       # average ReadReq mshr miss latency
system.cpu.dcache.ReadReq_avg_mshr_miss_latency::total 45089.995240                       # average ReadReq mshr miss latency
system.cpu.dcache.WriteReq_hits::.cpu.data       211445                       # number of WriteReq hits
system.cpu.dcache.WriteReq_hits::total         211445                       # number of WriteReq hits
system.cpu.dcache.WriteReq_misses::.cpu.data         2154                       # number of WriteReq misses
system.cpu.dcache.WriteReq_misses::total         2154                       # number of WriteReq misses
system.cpu.dcache.WriteReq_miss_latency::.cpu.data    106277200                       # number of WriteReq miss cycles
system.cpu.dcache.WriteReq_miss_latency::total    106277200                       # number of WriteReq miss cycles
system.cpu.dcache.WriteReq_accesses::.cpu.data       213599                       # number of WriteReq accesses(hits+misses)
system.cpu.dcache.WriteReq_accesses::total       213599                       # number of WriteReq accesses(hits+misses)
system.cpu.dcache.WriteReq_miss_rate::.cpu.data     0.010084                       # miss rate for WriteReq accesses
system.cpu.dcache.WriteReq_miss_rate::total     0.010084                       # miss rate for WriteReq accesses
system.cpu.dcache.WriteReq_avg_miss_latency::.cpu.data 49339.461467                       # average WriteReq miss latency
system.cpu.dcache.WriteReq_avg_miss_latency::total 49339.461467                       # average WriteReq miss latency
system.cpu.dcache.WriteReq_mshr_hits::.cpu.data           39                       # number of WriteReq MSHR hits
system.cpu.dcache.WriteReq_mshr_hits::total           39                       # number of WriteReq MSHR hits
system.cpu.dcache.WriteReq_mshr_misses::.cpu.data         2115                       # number of WriteReq MSHR misses
system.cpu.dcache.WriteReq_mshr_misses::total         2115                       # number of WriteReq MSHR misses
system.cpu.dcache.WriteReq_mshr_miss_latency::.cpu.data    103146400                       # number of WriteReq MSHR miss cycles
[...]
system.l2cache.demand_mshr_misses::.cpu.data          120                       # number of demand (read+write) MSHR misses
system.l2cache.demand_mshr_misses::.cpu.dcache.prefetcher           46                       # number of demand (read+write) MSHR misses
system.l2cache.demand_mshr_misses::total          403                       # number of demand (read+write) MSHR misses
system.l2cache.overall_mshr_misses::.cpu.inst          237                       # number of overall MSHR misses
system.l2cache.overall_mshr_misses::.cpu.data          120                       # number of overall MSHR misses
system.l2cache.overall_mshr_misses::.cpu.dcache.prefetcher           46                       # number of overall MSHR misses
system.l2cache.overall_mshr_misses::total          403                       # number of overall MSHR misses
system.l2cache.demand_mshr_miss_latency::.cpu.inst     14309200                       # number of demand (read+write) MSHR miss cycles
system.l2cache.demand_mshr_miss_latency::.cpu.data      7158800                       # number of demand (read+write) MSHR miss cycles
system.l2cache.demand_mshr_miss_latency::.cpu.dcache.prefetcher      2694357                       # number of demand (read+write) MSHR miss cycles
system.l2cache.demand_mshr_miss_latency::total     24162357                       # number of demand (read+write) MSHR miss cycles
system.l2cache.overall_mshr_miss_latency::.cpu.inst     14309200                       # number of overall MSHR miss cycles
system.l2cache.overall_mshr_miss_latency::.cpu.data      7158800                       # number of overall MSHR miss cycles
system.l2cache.overall_mshr_miss_latency::.cpu.dcache.prefetcher      2694357                       # number of overall MSHR miss cycles
system.l2cache.overall_mshr_miss_latency::total     24162357                       # number of overall MSHR miss cycles
system.l2cache.demand_mshr_miss_rate::.cpu.inst     0.507495                       # mshr miss rate for demand accesses
system.l2cache.demand_mshr_miss_rate::.cpu.data     0.502092                       # mshr miss rate for demand accesses
system.l2cache.demand_mshr_miss_rate::.cpu.dcache.prefetcher     0.754098                       # mshr miss rate for demand accesses
system.l2cache.demand_mshr_miss_rate::total     0.525424                       # mshr miss rate for demand accesses
system.l2cache.overall_mshr_miss_rate::.cpu.inst     0.507495                       # mshr miss rate for overall accesses
system.l2cache.overall_mshr_miss_rate::.cpu.data     0.502092                       # mshr miss rate for overall accesses
system.l2cache.overall_mshr_miss_rate::.cpu.dcache.prefetcher     0.754098                       # mshr miss rate for overall accesses
system.l2cache.overall_mshr_miss_rate::total     0.525424                       # mshr miss rate for overall accesses
system.l2cache.demand_avg_mshr_miss_latency::.cpu.inst 60376.371308                       # average overall mshr miss latency
system.l2cache.demand_avg_mshr_miss_latency::.cpu.data 59656.666667                       # average overall mshr miss latency
system.l2cache.demand_avg_mshr_miss_latency::.cpu.dcache.prefetcher 58572.978261                       # average overall mshr miss latency
system.l2cache.demand_avg_mshr_miss_latency::total 59956.220844                       # average overall mshr miss latency
system.l2cache.overall_avg_mshr_miss_latency::.cpu.inst 60376.371308                       # average overall mshr miss latency
system.l2cache.overall_avg_mshr_miss_latency::.cpu.data 59656.666667                       # average overall mshr miss latency
system.l2cache.overall_avg_mshr_miss_latency::.cpu.dcache.prefetcher 58572.978261                       # average overall mshr miss latency
system.l2cache.overall_avg_mshr_miss_latency::total 59956.220844                       # average overall mshr miss latency
system.l2cache.replacements                       413                       # number of replacements
system.l2cache.WritebackDirty_hits::.writebacks           93                       # number of WritebackDirty hits
system.l2cache.WritebackDirty_hits::total           93                       # number of WritebackDirty hits
system.l2cache.WritebackDirty_accesses::.writebacks           93                       # number of WritebackDirty accesses(hits+misses)
system.l2cache.WritebackDirty_accesses::total           93                       # number of WritebackDirty accesses(hits+misses)
system.l2cache.CleanEvict_mshr_misses::.writebacks           11                       # number of CleanEvict MSHR misses
system.l2cache.CleanEvict_mshr_misses::total           11                       # number of CleanEvict MSHR misses
system.l2cache.CleanEvict_mshr_miss_rate::.writebacks          inf                       # mshr miss rate for CleanEvict accesses
system.l2cache.CleanEvict_mshr_miss_rate::total          inf                       # mshr miss rate for CleanEvict accesses
system.l2cache.ReadExReq_hits::.cpu.data            6                       # number of ReadExReq hits
system.l2cache.ReadExReq_hits::total                6                       # number of ReadExReq hits
system.l2cache.ReadExReq_misses::.cpu.data            8                       # number of ReadExReq misses
system.l2cache.ReadExReq_misses::total              8                       # number of ReadExReq misses
system.l2cache.ReadExReq_miss_latency::.cpu.data       554400                       # number of ReadExReq miss cycles
system.l2cache.ReadExReq_miss_latency::total       554400                       # number of ReadExReq miss cycles
system.l2cache.ReadExReq_accesses::.cpu.data           14                       # number of ReadExReq accesses(hits+misses)
system.l2cache.ReadExReq_accesses::total           14                       # number of ReadExReq accesses(hits+misses)
system.l2cache.ReadExReq_miss_rate::.cpu.data     0.571429                       # miss rate for ReadExReq accesses
system.l2cache.ReadExReq_miss_rate::total     0.571429                       # miss rate for ReadExReq accesses
system.l2cache.ReadExReq_avg_miss_latency::.cpu.data        69300                       # average ReadExReq miss latency
system.l2cache.ReadExReq_avg_miss_latency::total        69300                       # average ReadExReq miss latency
system.l2cache.ReadExReq_mshr_misses::.cpu.data            8                       # number of ReadExReq MSHR misses
system.l2cache.ReadExReq_mshr_misses::total            8                       # number of ReadExReq MSHR misses
system.l2cache.ReadExReq_mshr_miss_latency::.cpu.data       490400                       # number of ReadExReq MSHR miss cycles
system.l2cache.ReadExReq_mshr_miss_latency::total       490400                       # number of ReadExReq MSHR miss cycles
system.l2cache.ReadExReq_mshr_miss_rate::.cpu.data     0.571429                       # mshr miss rate for ReadExReq accesses
system.l2cache.ReadExReq_mshr_miss_rate::total     0.571429                       # mshr miss rate for ReadExReq accesses
system.l2cache.ReadExReq_avg_mshr_miss_latency::.cpu.data        61300                       # average ReadExReq mshr miss latency
system.l2cache.ReadExReq_avg_mshr_miss_latency::total        61300                       # average ReadExReq mshr miss latency
system.l2cache.ReadSharedReq_hits::.cpu.inst          230                       # number of ReadSharedReq hits
system.l2cache.ReadSharedReq_hits::.cpu.data          113                       # number of ReadSharedReq hits
system.l2cache.ReadSharedReq_hits::.cpu.dcache.prefetcher           15                       # number of ReadSharedReq hits
system.l2cache.ReadSharedReq_hits::total          358                       # number of ReadSharedReq hits
system.l2cache.ReadSharedReq_misses::.cpu.inst          237                       # number of ReadSharedReq misses
system.l2cache.ReadSharedReq_misses::.cpu.data          112                       # number of ReadSharedReq misses
system.l2cache.ReadSharedReq_misses::.cpu.dcache.prefetcher           46                       # number of ReadSharedReq misses
system.l2cache.ReadSharedReq_misses::total          395                       # number of ReadSharedReq misses
system.l2cache.ReadSharedReq_miss_latency::.cpu.inst     16205200                       # number of ReadSharedReq miss cycles
system.l2cache.ReadSharedReq_miss_latency::.cpu.data      7564400                       # number of ReadSharedReq miss cycles
system.l2cache.ReadSharedReq_miss_latency::.cpu.dcache.prefetcher      3062357                       # number of ReadSharedReq miss cycles
system.l2cache.ReadSharedReq_miss_latency::total     26831957                       # number of ReadSharedReq miss cycles
system.l2cache.ReadSharedReq_accesses::.cpu.inst          467                       # number of ReadSharedReq accesses(hits+misses)
system.l2cache.ReadSharedReq_accesses::.cpu.data          225                       # number of ReadSharedReq accesses(hits+misses)
system.l2cache.ReadSharedReq_accesses::.cpu.dcache.prefetcher           61                       # number of ReadSharedReq accesses(hits+misses)
system.l2cache.ReadSharedReq_accesses::total          753                       # number of ReadSharedReq accesses(hits+misses)
system.l2cache.ReadSharedReq_miss_rate::.cpu.inst     0.507495                       # miss rate for ReadSharedReq accesses
system.l2cache.ReadSharedReq_miss_rate::.cpu.data     0.497778                       # miss rate for ReadSharedReq accesses
system.l2cache.ReadSharedReq_miss_rate::.cpu.dcache.prefetcher     0.754098                       # miss rate for ReadSharedReq accesses
system.l2cache.ReadSharedReq_miss_rate::total     0.524568                       # miss rate for ReadSharedReq accesses
system.l2cache.ReadSharedReq_avg_miss_latency::.cpu.inst 68376.371308                       # average ReadSharedReq miss latency
system.l2cache.ReadSharedReq_avg_miss_latency::.cpu.data 67539.285714                       # average ReadSharedReq miss latency
system.l2cache.ReadSharedReq_avg_miss_latency::.cpu.dcache.prefetcher 66572.978261                       # average ReadSharedReq miss latency
system.l2cache.ReadSharedReq_avg_miss_latency::total 67929.005063                       # average ReadSharedReq miss latency
system.l2cache.ReadSharedReq_mshr_misses::.cpu.inst          237                       # number of ReadSharedReq MSHR misses
system.l2cache.ReadSharedReq_mshr_misses::.cpu.data          112                       # number of ReadSharedReq MSHR misses
system.l2cache.ReadSharedReq_mshr_misses::.cpu.dcache.prefetcher           46                       # number of ReadSharedReq MSHR misses
system.l2cache.ReadSharedReq_mshr_misses::total          395                       # number of ReadSharedReq MSHR misses
system.l2cache.ReadSharedReq_mshr_miss_latency::.cpu.inst     14309200                       # number of ReadSharedReq MSHR miss cycles
system.l2cache.ReadSharedReq_mshr_miss_latency::.cpu.data      6668400                       # number of ReadSharedReq MSHR miss cycles
system.l2cache.ReadSharedReq_mshr_miss_latency::.cpu.dcache.prefetcher      2694357                       # number of ReadSharedReq MSHR miss cycles
system.l2cache.ReadSharedReq_mshr_miss_latency::total     23671957                       # number of ReadSharedReq MSHR miss cycles
system.l2cache.ReadSharedReq_mshr_miss_rate::.cpu.inst     0.507495                       # mshr miss rate for ReadSharedReq accesses
system.l2cache.ReadSharedReq_mshr_miss_rate::.cpu.data     0.497778                       # mshr miss rate for ReadSharedReq accesses
system.l2cache.ReadSharedReq_mshr_miss_rate::.cpu.dcache.prefetcher     0.754098                       # mshr miss rate for ReadSharedReq accesses
system.l2cache.ReadSharedReq_mshr_miss_rate::total     0.524568                       # mshr miss rate for ReadSharedReq accesses
system.l2cache.ReadSharedReq_avg_mshr_miss_latency::.cpu.inst 60376.371308                       # average ReadSharedReq mshr miss latency
system.l2cache.ReadSharedReq_avg_mshr_miss_latency::.cpu.data 59539.285714                       # average ReadSharedReq mshr miss latency
system.l2cache.ReadSharedReq_avg_mshr_miss_latency::.cpu.dcache.prefetcher 58572.978261                       # average ReadSharedReq mshr miss latency
system.l2cache.ReadSharedReq_avg_mshr_miss_latency::total 59929.005063                       # average ReadSharedReq mshr miss latency
system.l2cache.prefetcher.pwrStateResidencyTicks::UNDEFINED     28428400                       # Cumulative time (in ticks) in various power states
system.l2cache.tags.pwrStateResidencyTicks::UNDEFINED     28428400                       # Cumulative time (in ticks) in various power states
system.l2cache.tags.tagsinuse                    4096                       # Cycle average of tags in use
system.l2cache.tags.total_refs                  14000                       # Total number of references to valid blocks.
system.l2cache.tags.sampled_refs                 4509                       # Sample count of references to valid blocks.
system.l2cache.tags.avg_refs                 3.104901                       # Average number of references to valid blocks.
system.l2cache.tags.warmup_cycle                    0                       # Cycle when the warmup percentage was hit.
system.l2cache.tags.occ_blocks::.writebacks    41.371614                       # Average occupied blocks per requestor
system.l2cache.tags.occ_blocks::.cpu.inst  1128.676890                       # Average occupied blocks per requestor
system.l2cache.tags.occ_blocks::.cpu.data  1809.628876                       # Average occupied blocks per requestor
system.l2cache.tags.occ_blocks::.cpu.dcache.prefetcher   989.924356                       # Average occupied blocks per requestor
system.l2cache.tags.occ_blocks::.l2cache.prefetcher   126.398264                       # Average occupied blocks per requestor
system.l2cache.tags.occ_percent::.writebacks     0.010100                       # Average percentage of cache occupancy
system.l2cache.tags.occ_percent::.cpu.inst     0.275556                       # Average percentage of cache occupancy
system.l2cache.tags.occ_percent::.cpu.data     0.441804                       # Average percentage of cache occupancy
system.l2cache.tags.occ_percent::.cpu.dcache.prefetcher     0.241681                       # Average percentage of cache occupancy
system.l2cache.tags.occ_percent::.l2cache.prefetcher     0.030859                       # Average percentage of cache occupancy
system.l2cache.tags.occ_percent::total       1.000000                       # Average percentage of cache occupancy
system.l2cache.tags.occ_task_id_blocks::1022         1066                       # Occupied blocks per task id
system.l2cache.tags.occ_task_id_blocks::1024         3030                       # Occupied blocks per task id
system.l2cache.tags.age_task_id_blocks_1022::0            8                       # Occupied blocks per task id
system.l2cache.tags.age_task_id_blocks_1022::1           52                       # Occupied blocks per task id
system.l2cache.tags.age_task_id_blocks_1022::2         1003                       # Occupied blocks per task id
system.l2cache.tags.age_task_id_blocks_1022::3            3                       # Occupied blocks per task id
system.l2cache.tags.age_task_id_blocks_1024::0          174                       # Occupied blocks per task id
system.l2cache.tags.age_task_id_blocks_1024::1          321                       # Occupied blocks per task id
system.l2cache.tags.age_task_id_blocks_1024::2         2450                       # Occupied blocks per task id
system.l2cache.tags.age_task_id_blocks_1024::3           85                       # Occupied blocks per task id
system.l2cache.tags.occ_task_id_percent::1022     0.260254                       # Percentage of cache occupancy per task id
system.l2cache.tags.occ_task_id_percent::1024     0.739746                       # Percentage of cache occupancy per task id
system.l2cache.tags.tag_accesses                12677                       # Number of tag accesses
system.l2cache.tags.data_accesses               12677                       # Number of data accesses
system.mem_ctrl.pwrStateResidencyTicks::UNDEFINED     28428400                       # Cumulative time (in ticks) in various power states
system.mem_ctrl.bytes_read::.cpu.inst           15168                       # Number of bytes read from this memory
system.mem_ctrl.bytes_read::.cpu.data            7680                       # Number of bytes read from this memory
system.mem_ctrl.bytes_read::.cpu.dcache.prefetcher         2944                       # Number of bytes read from this memory
system.mem_ctrl.bytes_read::total               25792                       # Number of bytes read from this memory
system.mem_ctrl.bytes_inst_read::.cpu.inst        15168                       # Number of instructions bytes read from this memory
system.mem_ctrl.bytes_inst_read::total          15168                       # Number of instructions bytes read from this memory
system.mem_ctrl.bytes_written::.writebacks         1600                       # Number of bytes written to this memory
system.mem_ctrl.bytes_written::total             1600                       # Number of bytes written to this memory
system.mem_ctrl.num_reads::.cpu.inst              237                       # Number of read requests responded to by this memory
system.mem_ctrl.num_reads::.cpu.data              120                       # Number of read requests responded to by this memory
system.mem_ctrl.num_reads::.cpu.dcache.prefetcher           46                       # Number of read requests responded to by this memory
system.mem_ctrl.num_reads::total                  403                       # Number of read requests responded to by this memory
system.mem_ctrl.num_writes::.writebacks            25                       # Number of write requests responded to by this memory
system.mem_ctrl.num_writes::total                  25                       # Number of write requests responded to by this memory
system.mem_ctrl.bw_read::.cpu.inst          533550956                       # Total read bandwidth from this memory (bytes/s)
system.mem_ctrl.bw_read::.cpu.data          270152383                       # Total read bandwidth from this memory (bytes/s)
system.mem_ctrl.bw_read::.cpu.dcache.prefetcher    103558413                       # Total read bandwidth from this memory (bytes/s)
system.mem_ctrl.bw_read::total              907261752                       # Total read bandwidth from this memory (bytes/s)
system.mem_ctrl.bw_inst_read::.cpu.inst     533550956                       # Instruction read bandwidth from this memory (bytes/s)
system.mem_ctrl.bw_inst_read::total         533550956                       # Instruction read bandwidth from this memory (bytes/s)
system.mem_ctrl.bw_write::.writebacks        56281746                       # Write bandwidth from this memory (bytes/s)
system.mem_ctrl.bw_write::total              56281746                       # Write bandwidth from this memory (bytes/s)
system.mem_ctrl.bw_total::.writebacks        56281746                       # Total bandwidth to/from this memory (bytes/s)
system.mem_ctrl.bw_total::.cpu.inst         533550956                       # Total bandwidth to/from this memory (bytes/s)
system.mem_ctrl.bw_total::.cpu.data         270152383                       # Total bandwidth to/from this memory (bytes/s)
system.mem_ctrl.bw_total::.cpu.dcache.prefetcher    103558413                       # Total bandwidth to/from this memory (bytes/s)
system.mem_ctrl.bw_total::total             963543499                       # Total bandwidth to/from this memory (bytes/s)

---------- End Simulation Statistics   ----------
