
---------- Begin Simulation Statistics ----------
final_tick                                 1186427200                       # Number of ticks from beginning of simulation (restored from checkpoints and never reset)
host_inst_rate                                 188921                       # Simulator instruction rate (inst/s)
host_mem_usage                                4406836                       # Number of bytes of host memory used
host_op_rate                                   332505                       # Simulator op (including micro ops) rate (op/s)
host_seconds                                    12.39                       # Real time elapsed on the host
host_tick_rate                               95748817                       # Simulator tick rate (ticks/s)
sim_freq                                 1000000000000                       # Frequency of simulated ticks
sim_insts                                     2340908                       # Number of instructions simulated
sim_ops                                       4120079                       # Number of ops (including micro ops) simulated
sim_seconds                                  0.001186                       # Number of seconds simulated
sim_ticks                                  1186427200                       # Number of ticks simulated
system.cpu.branchPred.BTBCorrect                    0                       # Number of correct BTB predictions (this stat may not work properly.
system.cpu.branchPred.BTBHitPct              0.000000                       # BTB Hit Percentage
system.cpu.branchPred.BTBHits                       0                       # Number of BTB hits
system.cpu.branchPred.BTBLookups               487457                       # Number of BTB lookups
system.cpu.branchPred.RASInCorrect                 11                       # Number of incorrect RAS predictions.
system.cpu.branchPred.condIncorrect             24730                       # Number of conditional branches incorrect
system.cpu.branchPred.condPredicted            513970                       # Number of conditional branches predicted
system.cpu.branchPred.indirectHits             267244                       # Number of indirect target hits.
system.cpu.branchPred.indirectLookups          487457                       # Number of indirect predictor lookups.
system.cpu.branchPred.indirectMisses           220213                       # Number of indirect misses.
system.cpu.branchPred.lookups                  548745                       # Number of BP lookups
system.cpu.branchPred.usedRAS                   15673                       # Number of times the RAS was used to get a target.
system.cpu.branchPredindirectMispredicted        12132                       # Number of mispredicted indirect branches.
system.cpu.cc_regfile_reads                   2677352                       # number of cc regfile reads
system.cpu.cc_regfile_writes                  2115125                       # number of cc regfile writes
system.cpu.commit.amos                              0                       # Number of atomic instructions committed
system.cpu.commit.branchMispredicts             24821                       # The number of times a branch was mispredicted
system.cpu.commit.branches                     401650                       # Number of branches committed
system.cpu.commit.bw_lim_events                677218                       # number cycles where commit BW limit reached
system.cpu.commit.commitNonSpecStalls             742                       # The number of times commit has been forced to stall to communicate backwards
system.cpu.commit.commitSquashedInsts          904126                       # The number of squashed insts skipped by commit
system.cpu.commit.committedInsts              2340908                       # Number of instructions committed
system.cpu.commit.committedOps                4120079                       # Number of ops (including micro ops) committed
system.cpu.commit.committed_per_cycle::samples      2558797                       # Number of insts commited each cycle
system.cpu.commit.committed_per_cycle::mean     1.610163                       # Number of insts commited each cycle
system.cpu.commit.committed_per_cycle::stdev     1.721622                       # Number of insts commited each cycle
system.cpu.commit.committed_per_cycle::underflows            0      0.00%      0.00% # Number of insts commited each cycle
system.cpu.commit.committed_per_cycle::0      1193924     46.66%     46.66% # Number of insts commited each cycle
system.cpu.commit.committed_per_cycle::1       226314      8.84%     55.50% # Number of insts commited each cycle
system.cpu.commit.committed_per_cycle::2       199130      7.78%     63.29% # Number of insts commited each cycle
system.cpu.commit.committed_per_cycle::3       262211     10.25%     73.53% # Number of insts commited each cycle
system.cpu.commit.committed_per_cycle::4       677218     26.47%    100.00% # Number of insts commited each cycle
system.cpu.commit.committed_per_cycle::overflows            0      0.00%    100.00% # Number of insts commited each cycle
system.cpu.commit.committed_per_cycle::min_value            0                       # Number of insts commited each cycle
system.cpu.commit.committed_per_cycle::max_value            4                       # Number of insts commited each cycle
system.cpu.commit.committed_per_cycle::total      2558797                       # Number of insts commited each cycle
system.cpu.commit.fp_insts                      92339                       # Number of committed floating point instructions.
system.cpu.commit.function_calls                13714                       # Number of function calls committed.
system.cpu.commit.int_insts                   4049286                       # Number of committed integer instructions.
system.cpu.commit.loads                        554738                       # Number of loads committed
system.cpu.commit.membars                           1                       # Number of memory barriers committed
system.cpu.commit.op_class_0::No_OpClass        22468      0.55%      0.55% # Class of committed instruction
system.cpu.commit.op_class_0::IntAlu          3231494     78.43%     78.98% # Class of committed instruction
system.cpu.commit.op_class_0::IntMult            4368      0.11%     79.08% # Class of committed instruction
system.cpu.commit.op_class_0::IntDiv            38333      0.93%     80.01% # Class of committed instruction
system.cpu.commit.op_class_0::FloatAdd           3619      0.09%     80.10% # Class of committed instruction
system.cpu.commit.op_class_0::FloatCmp              0      0.00%     80.10% # Class of committed instruction
system.cpu.commit.op_class_0::FloatCvt           1216      0.03%     80.13% # Class of committed instruction
system.cpu.commit.op_class_0::FloatMult             0      0.00%     80.13% # Class of committed instruction
system.cpu.commit.op_class_0::FloatMultAcc            0      0.00%     80.13% # Class of committed instruction
system.cpu.commit.op_class_0::FloatDiv              0      0.00%     80.13% # Class of committed instruction
system.cpu.commit.op_class_0::FloatMisc             0      0.00%     80.13% # Class of committed instruction
system.cpu.commit.op_class_0::FloatSqrt             0      0.00%     80.13% # Class of committed instruction
system.cpu.commit.op_class_0::SimdAdd            6238      0.15%     80.28% # Class of committed instruction
system.cpu.commit.op_class_0::SimdAddAcc            0      0.00%     80.28% # Class of committed instruction
system.cpu.commit.op_class_0::SimdAlu           14321      0.35%     80.63% # Class of committed instruction
system.cpu.commit.op_class_0::SimdCmp               0      0.00%     80.63% # Class of committed instruction
system.cpu.commit.op_class_0::SimdCvt           15240      0.37%     81.00% # Class of committed instruction
system.cpu.commit.op_class_0::SimdMisc          13460      0.33%     81.33% # Class of committed instruction
system.cpu.commit.op_class_0::SimdMult              0      0.00%     81.33% # Class of committed instruction
system.cpu.commit.op_class_0::SimdMultAcc            0      0.00%     81.33% # Class of committed instruction
system.cpu.commit.op_class_0::SimdShift          1184      0.03%     81.36% # Class of committed instruction
system.cpu.commit.op_class_0::SimdShiftAcc            0      0.00%     81.36% # Class of committed instruction
system.cpu.commit.op_class_0::SimdDiv               0      0.00%     81.36% # Class of committed instruction
system.cpu.commit.op_class_0::SimdSqrt              0      0.00%     81.36% # Class of committed instruction
system.cpu.commit.op_class_0::SimdFloatAdd            0      0.00%     81.36% # Class of committed instruction
system.cpu.commit.op_class_0::SimdFloatAlu            0      0.00%     81.36% # Class of committed instruction
system.cpu.commit.op_class_0::SimdFloatCmp            0      0.00%     81.36% # Class of committed instruction
system.cpu.commit.op_class_0::SimdFloatCvt            0      0.00%     81.36% # Class of committed instruction
system.cpu.commit.op_class_0::SimdFloatDiv            0      0.00%     81.36% # Class of committed instruction
system.cpu.commit.op_class_0::SimdFloatMisc            0      0.00%     81.36% # Class of committed instruction
system.cpu.commit.op_class_0::SimdFloatMult            0      0.00%     81.36% # Class of committed instruction
system.cpu.commit.op_class_0::SimdFloatMultAcc            0      0.00%     81.36% # Class of committed instruction
system.cpu.commit.op_class_0::SimdFloatSqrt            0      0.00%     81.36% # Class of committed instruction
system.cpu.commit.op_class_0::SimdReduceAdd            0      0.00%     81.36% # Class of committed instruction
system.cpu.commit.op_class_0::SimdReduceAlu            0      0.00%     81.36% # Class of committed instruction
system.cpu.commit.op_class_0::SimdReduceCmp            0      0.00%     81.36% # Class of committed instruction
system.cpu.commit.op_class_0::SimdFloatReduceAdd            0      0.00%     81.36% # Class of committed instruction
system.cpu.commit.op_class_0::SimdFloatReduceCmp            0      0.00%     81.36% # Class of committed instruction
system.cpu.commit.op_class_0::SimdAes               0      0.00%     81.36% # Class of committed instruction
system.cpu.commit.op_class_0::SimdAesMix            0      0.00%     81.36% # Class of committed instruction
system.cpu.commit.op_class_0::SimdSha1Hash            0      0.00%     81.36% # Class of committed instruction
system.cpu.commit.op_class_0::SimdSha1Hash2            0      0.00%     81.36% # Class of committed instruction
system.cpu.commit.op_class_0::SimdSha256Hash            0      0.00%     81.36% # Class of committed instruction
system.cpu.commit.op_class_0::SimdSha256Hash2            0      0.00%     81.36% # Class of committed instruction
system.cpu.commit.op_class_0::SimdShaSigma2            0      0.00%     81.36% # Class of committed instruction
system.cpu.commit.op_class_0::SimdShaSigma3            0      0.00%     81.36% # Class of committed instruction
system.cpu.commit.op_class_0::SimdPredAlu            0      0.00%     81.36% # Class of committed instruction
system.cpu.commit.op_class_0::MemRead          533468     12.95%     94.30% # Class of committed instruction
system.cpu.commit.op_class_0::MemWrite         200777      4.87%     99.18% # Class of committed instruction
system.cpu.commit.op_class_0::FloatMemRead        21270      0.52%     99.69% # Class of committed instruction
system.cpu.commit.op_class_0::FloatMemWrite        12623      0.31%    100.00% # Class of committed instruction
system.cpu.commit.op_class_0::IprAccess             0      0.00%    100.00% # Class of committed instruction
system.cpu.commit.op_class_0::InstPrefetch            0      0.00%    100.00% # Class of committed instruction
system.cpu.commit.op_class_0::total           4120079                       # Class of committed instruction
system.cpu.commit.refs                         768138                       # Number of memory references committed
system.cpu.commit.swp_count                         0                       # Number of s/w prefetches committed
system.cpu.commit.vec_insts                         0                       # Number of committed Vector instructions.
system.cpu.committedInsts                     2340908                       # Number of Instructions Simulated
system.cpu.committedOps                       4120079                       # Number of Ops (including micro ops) Simulated
system.cpu.cpi                               1.267059                       # CPI: Cycles Per Instruction
system.cpu.cpi_total                         1.267059                       # CPI: Total CPI of All Threads
system.cpu.dcache.prefetcher.num_hwpf_issued         8214                       # number of hwpf issued
system.cpu.dcache.prefetcher.pfBufferHit        33029                       # number of redundant prefetches already in prefetch queue
system.cpu.dcache.prefetcher.pfIdentified        48437                       # number of prefetch candidates identified
system.cpu.dcache.prefetcher.pfInCache              0                       # number of redundant prefetches already in cache/mshr dropped
system.cpu.dcache.prefetcher.pfRemovedFull            0                       # number of prefetches dropped due to prefetch queue size
system.cpu.dcache.prefetcher.pfSpanPage          4395                       # number of prefetches that crossed the page
system.cpu.decode.BlockedCycles               1034521                       # Number of cycles decode is blocked
system.cpu.decode.DecodedInsts                5243786                       # Number of instructions handled by decode
system.cpu.decode.IdleCycles                   358618                       # Number of cycles decode is idle
system.cpu.decode.RunCycles                   1296708                       # Number of cycles decode is running
system.cpu.decode.SquashCycles                  24886                       # Number of cycles decode is squashing
system.cpu.decode.UnblockCycles                 89842                       # Number of cycles decode is unblocking
system.cpu.dtb.rdAccesses                      640372                       # TLB accesses on read requests
system.cpu.dtb.rdMisses                          2054                       # TLB misses on read requests
system.cpu.dtb.wrAccesses                      233096                       # TLB accesses on write requests
system.cpu.dtb.wrMisses                           160                       # TLB misses on write requests
system.cpu.fetch.Branches                      548745                       # Number of branches that fetch encountered
system.cpu.fetch.CacheLines                    290154                       # Number of cache lines fetched
system.cpu.fetch.Cycles                       2385580                       # Number of cycles fetch has run and was not squashing or blocked
system.cpu.fetch.IcacheSquashes                  4734                       # Number of outstanding Icache misses that were squashed
system.cpu.fetch.IcacheWaitRetryStallCycles           17                       # Number of stall cycles due to full MSHR
system.cpu.fetch.Insts                        3121893                       # Number of instructions fetch has processed
system.cpu.fetch.MiscStallCycles                  100                       # Number of cycles fetch has spent waiting on interrupts, or bad addresses, or out of MSHRs
system.cpu.fetch.PendingQuiesceStallCycles            8                       # Number of stall cycles due to pending quiesce instructions
system.cpu.fetch.PendingTrapStallCycles           611                       # Number of stall cycles due to pending traps
system.cpu.fetch.SquashCycles                   49772                       # Number of cycles fetch has spent squashing
system.cpu.fetch.branchRate                  0.185007                       # Number of branch fetches per cycle
system.cpu.fetch.icacheStallCycles             393373                       # Number of cycles fetch is stalled on an Icache miss
system.cpu.fetch.predictedBranches             282917                       # Number of branches that fetch has predicted taken
system.cpu.fetch.rate                        1.052536                       # Number of inst fetches per cycle
system.cpu.fetch.rateDist::samples            2804575                       # Number of instructions fetched each cycle (Total)
system.cpu.fetch.rateDist::mean              1.967744                       # Number of instructions fetched each cycle (Total)
system.cpu.fetch.rateDist::stdev             1.926440                       # Number of instructions fetched each cycle (Total)
system.cpu.fetch.rateDist::underflows               0      0.00%      0.00% # Number of instructions fetched each cycle (Total)
system.cpu.fetch.rateDist::0                  1299560     46.34%     46.34% # Number of instructions fetched each cycle (Total)
system.cpu.fetch.rateDist::1                    93957      3.35%     49.69% # Number of instructions fetched each cycle (Total)
system.cpu.fetch.rateDist::2                    66625      2.38%     52.06% # Number of instructions fetched each cycle (Total)
system.cpu.fetch.rateDist::3                    86252      3.08%     55.14% # Number of instructions fetched each cycle (Total)
system.cpu.fetch.rateDist::4                  1258181     44.86%    100.00% # Number of instructions fetched each cycle (Total)
system.cpu.fetch.rateDist::overflows                0      0.00%    100.00% # Number of instructions fetched each cycle (Total)
system.cpu.fetch.rateDist::min_value                0                       # Number of instructions fetched each cycle (Total)
system.cpu.fetch.rateDist::max_value                4                       # Number of instructions fetched each cycle (Total)
system.cpu.fetch.rateDist::total              2804575                       # Number of instructions fetched each cycle (Total)
system.cpu.fp_regfile_reads                    152565                       # number of floating regfile reads
system.cpu.fp_regfile_writes                    82809                       # number of floating regfile writes
system.cpu.fuPool.fu_ticks_busy::IntALU(0)    244762800                       # Total ticks fu was busy
system.cpu.fuPool.fu_ticks_busy::IntALU(1)    244762800                       # Total ticks fu was busy
system.cpu.fuPool.fu_ticks_busy::IntALU(2)    244762800                       # Total ticks fu was busy
system.cpu.fuPool.fu_ticks_busy::IntALU(3)    244762800                       # Total ticks fu was busy
system.cpu.fuPool.fu_ticks_busy::IntALU(4)    244762800                       # Total ticks fu was busy
system.cpu.fuPool.fu_ticks_busy::IntALU(5)    244762800                       # Total ticks fu was busy
system.cpu.fuPool.fu_ticks_busy::IntMultDiv(0)      9324000                       # Total ticks fu was busy
system.cpu.fuPool.fu_ticks_busy::IntMultDiv(1)      9323600                       # Total ticks fu was busy
system.cpu.fuPool.fu_ticks_busy::FP_ALU(0)       643200                       # Total ticks fu was busy
system.cpu.fuPool.fu_ticks_busy::FP_ALU(1)       643200                       # Total ticks fu was busy
system.cpu.fuPool.fu_ticks_busy::FP_ALU(2)       642800                       # Total ticks fu was busy
system.cpu.fuPool.fu_ticks_busy::FP_ALU(3)       642400                       # Total ticks fu was busy
system.cpu.fuPool.fu_ticks_busy::FP_MultDiv(0)            0                       # Total ticks fu was busy
system.cpu.fuPool.fu_ticks_busy::FP_MultDiv(1)            0                       # Total ticks fu was busy
system.cpu.fuPool.fu_ticks_busy::SIMD_Unit(0)      5963600                       # Total ticks fu was busy
system.cpu.fuPool.fu_ticks_busy::SIMD_Unit(1)      5887200                       # Total ticks fu was busy
system.cpu.fuPool.fu_ticks_busy::SIMD_Unit(2)      5730000                       # Total ticks fu was busy
system.cpu.fuPool.fu_ticks_busy::SIMD_Unit(3)      5702400                       # Total ticks fu was busy
system.cpu.fuPool.fu_ticks_busy::PredALU(0)            0                       # Total ticks fu was busy
system.cpu.fuPool.fu_ticks_busy::RdWrPort(0)     88887200                       # Total ticks fu was busy
system.cpu.fuPool.fu_ticks_busy::RdWrPort(1)     88856400                       # Total ticks fu was busy
system.cpu.fuPool.fu_ticks_busy::RdWrPort(2)     88774400                       # Total ticks fu was busy
system.cpu.fuPool.fu_ticks_busy::RdWrPort(3)     88877600                       # Total ticks fu was busy
system.cpu.fuPool.fu_ticks_busy::IprPort(0)            0                       # Total ticks fu was busy
system.cpu.fuPool.fu_ticks_busy::total     1868474800                       # Total ticks fu was busy
system.cpu.icache.prefetcher.num_hwpf_issued            0                       # number of hwpf issued
system.cpu.icache.prefetcher.pfBufferHit            0                       # number of redundant prefetches already in prefetch queue
system.cpu.icache.prefetcher.pfIdentified            0                       # number of prefetch candidates identified
system.cpu.icache.prefetcher.pfInCache              0                       # number of redundant prefetches already in cache/mshr dropped
system.cpu.icache.prefetcher.pfRemovedFull            0                       # number of prefetches dropped due to prefetch queue size
system.cpu.icache.prefetcher.pfSpanPage             0                       # number of prefetches that crossed the page
system.cpu.idleCycles                          161494                       # Total number of cycles that the CPU has spent unscheduled due to idling
system.cpu.iew.branchMispredicts                29304                       # Number of branch mispredicts detected at execute
system.cpu.iew.exec_branches                   433374                       # Number of branches executed
system.cpu.iew.exec_nop                             0                       # number of nop insts executed
system.cpu.iew.exec_rate                     1.572524                       # Inst execution rate
system.cpu.iew.exec_refs                       875170                       # number of memory reference insts executed
system.cpu.iew.exec_stores                     232978                       # Number of stores executed
system.cpu.iew.exec_swp                             0                       # number of swp insts executed
system.cpu.iew.iewBlockCycles                  700049                       # Number of cycles IEW is blocking
system.cpu.iew.iewDispLoadInsts                674010                       # Number of dispatched load instructions
system.cpu.iew.iewDispNonSpecInsts                938                       # Number of dispatched non-speculative instructions
system.cpu.iew.iewDispSquashedInsts               597                       # Number of squashed instructions skipped by dispatch
system.cpu.iew.iewDispStoreInsts               244113                       # Number of dispatched store instructions
system.cpu.iew.iewDispatchedInsts             5024144                       # Number of instructions dispatched to IQ
system.cpu.iew.iewExecLoadInsts                642192                       # Number of load instructions executed
system.cpu.iew.iewExecSquashedInsts             35476                       # Number of squashed instructions skipped in execute
system.cpu.iew.iewExecutedInsts               4664214                       # Number of executed instructions
system.cpu.iew.iewIQFullEvents                   3300                       # Number of times the IQ has become full, causing a stall
system.cpu.iew.iewIdleCycles                        0                       # Number of cycles IEW is idle
system.cpu.iew.iewLSQFullEvents                  9024                       # Number of times the LSQ has become full, causing a stall
system.cpu.iew.iewSquashCycles                  24886                       # Number of cycles IEW is squashing
system.cpu.iew.iewUnblockCycles                 15168                       # Number of cycles IEW is unblocking
system.cpu.iew.lsq.thread0.blockedLoads             0                       # Number of blocked loads due to partial load-store forwarding
system.cpu.iew.lsq.thread0.cacheBlocked           578                       # Number of times an access to memory failed due to the cache being blocked
system.cpu.iew.lsq.thread0.forwLoads            44771                       # Number of loads that had data forwarded from stores
system.cpu.iew.lsq.thread0.ignoredResponses          243                       # Number of memory responses ignored because the instruction is squashed
system.cpu.iew.lsq.thread0.invAddrLoads             0                       # Number of loads ignored due to an invalid address
system.cpu.iew.lsq.thread0.invAddrSwpfs             0                       # Number of software prefetches ignored due to an invalid address
system.cpu.iew.lsq.thread0.memOrderViolation           79                       # Number of memory ordering violations
system.cpu.iew.lsq.thread0.rescheduledLoads           55                       # Number of loads that were rescheduled
system.cpu.iew.lsq.thread0.squashedLoads       119270                       # Number of loads squashed
system.cpu.iew.lsq.thread0.squashedStores        30712                       # Number of stores squashed
system.cpu.iew.memOrderViolationEvents             79                       # Number of memory order violations
system.cpu.iew.predictedNotTakenIncorrect        20752                       # Number of branches that were predicted not taken incorrectly
system.cpu.iew.predictedTakenIncorrect           8552                       # Number of branches that were predicted taken incorrectly
system.cpu.iew.wb_consumers                   6393970                       # num instructions consuming a value
system.cpu.iew.wb_count                       4642000                       # cumulative count of insts written-back
system.cpu.iew.wb_fanout                     0.572369                       # average fanout of values written-back
system.cpu.iew.wb_producers                   3659710                       # num instructions producing a value
system.cpu.iew.wb_rate                       1.565034                       # insts written-back per cycle
system.cpu.iew.wb_sent                        4649074                       # cumulative count of insts sent to commit
system.cpu.int_regfile_reads                  7203124                       # number of integer regfile reads
system.cpu.int_regfile_writes                 3972238                       # number of integer regfile writes
system.cpu.ipc                               0.789229                       # IPC: Instructions Per Cycle
system.cpu.ipc_total                         0.789229                       # IPC: Total IPC of All Threads
system.cpu.iq.FU_type_0::No_OpClass             28503      0.61%      0.61% # Type of FU issued
system.cpu.iq.FU_type_0::IntAlu               3671443     78.12%     78.73% # Type of FU issued
system.cpu.iq.FU_type_0::IntMult                 4390      0.09%     78.82% # Type of FU issued
system.cpu.iq.FU_type_0::IntDiv                 42229      0.90%     79.72% # Type of FU issued
system.cpu.iq.FU_type_0::FloatAdd                5167      0.11%     79.83% # Type of FU issued
system.cpu.iq.FU_type_0::FloatCmp                   0      0.00%     79.83% # Type of FU issued
system.cpu.iq.FU_type_0::FloatCvt                1262      0.03%     79.86% # Type of FU issued
system.cpu.iq.FU_type_0::FloatMult                  0      0.00%     79.86% # Type of FU issued
system.cpu.iq.FU_type_0::FloatMultAcc               0      0.00%     79.86% # Type of FU issued
system.cpu.iq.FU_type_0::FloatDiv                   0      0.00%     79.86% # Type of FU issued
system.cpu.iq.FU_type_0::FloatMisc                  0      0.00%     79.86% # Type of FU issued
system.cpu.iq.FU_type_0::FloatSqrt                  0      0.00%     79.86% # Type of FU issued
system.cpu.iq.FU_type_0::SimdAdd                 6894      0.15%     80.00% # Type of FU issued
system.cpu.iq.FU_type_0::SimdAddAcc                 0      0.00%     80.00% # Type of FU issued
system.cpu.iq.FU_type_0::SimdAlu                17974      0.38%     80.39% # Type of FU issued
system.cpu.iq.FU_type_0::SimdCmp                    0      0.00%     80.39% # Type of FU issued
system.cpu.iq.FU_type_0::SimdCvt                17040      0.36%     80.75% # Type of FU issued
system.cpu.iq.FU_type_0::SimdMisc               14058      0.30%     81.05% # Type of FU issued
system.cpu.iq.FU_type_0::SimdMult                   0      0.00%     81.05% # Type of FU issued
system.cpu.iq.FU_type_0::SimdMultAcc                0      0.00%     81.05% # Type of FU issued
system.cpu.iq.FU_type_0::SimdShift               2242      0.05%     81.09% # Type of FU issued
system.cpu.iq.FU_type_0::SimdShiftAcc               0      0.00%     81.09% # Type of FU issued
system.cpu.iq.FU_type_0::SimdDiv                    0      0.00%     81.09% # Type of FU issued
system.cpu.iq.FU_type_0::SimdSqrt                   0      0.00%     81.09% # Type of FU issued
system.cpu.iq.FU_type_0::SimdFloatAdd               0      0.00%     81.09% # Type of FU issued
system.cpu.iq.FU_type_0::SimdFloatAlu               0      0.00%     81.09% # Type of FU issued
system.cpu.iq.FU_type_0::SimdFloatCmp               0      0.00%     81.09% # Type of FU issued
system.cpu.iq.FU_type_0::SimdFloatCvt               0      0.00%     81.09% # Type of FU issued
system.cpu.iq.FU_type_0::SimdFloatDiv               0      0.00%     81.09% # Type of FU issued
system.cpu.iq.FU_type_0::SimdFloatMisc              0      0.00%     81.09% # Type of FU issued
system.cpu.iq.FU_type_0::SimdFloatMult              0      0.00%     81.09% # Type of FU issued
system.cpu.iq.FU_type_0::SimdFloatMultAcc            0      0.00%     81.09% # Type of FU issued
system.cpu.iq.FU_type_0::SimdFloatSqrt              0      0.00%     81.09% # Type of FU issued
system.cpu.iq.FU_type_0::SimdReduceAdd              0      0.00%     81.09% # Type of FU issued
system.cpu.iq.FU_type_0::SimdReduceAlu              0      0.00%     81.09% # Type of FU issued
system.cpu.iq.FU_type_0::SimdReduceCmp              0      0.00%     81.09% # Type of FU issued
system.cpu.iq.FU_type_0::SimdFloatReduceAdd            0      0.00%     81.09% # Type of FU issued
system.cpu.iq.FU_type_0::SimdFloatReduceCmp            0      0.00%     81.09% # Type of FU issued
system.cpu.iq.FU_type_0::SimdAes                    0      0.00%     81.09% # Type of FU issued
system.cpu.iq.FU_type_0::SimdAesMix                 0      0.00%     81.09% # Type of FU issued
system.cpu.iq.FU_type_0::SimdSha1Hash               0      0.00%     81.09% # Type of FU issued
system.cpu.iq.FU_type_0::SimdSha1Hash2              0      0.00%     81.09% # Type of FU issued
system.cpu.iq.FU_type_0::SimdSha256Hash             0      0.00%     81.09% # Type of FU issued
system.cpu.iq.FU_type_0::SimdSha256Hash2            0      0.00%     81.09% # Type of FU issued
system.cpu.iq.FU_type_0::SimdShaSigma2              0      0.00%     81.09% # Type of FU issued
system.cpu.iq.FU_type_0::SimdShaSigma3              0      0.00%     81.09% # Type of FU issued
system.cpu.iq.FU_type_0::SimdPredAlu                0      0.00%     81.09% # Type of FU issued
system.cpu.iq.FU_type_0::MemRead               625710     13.31%     94.41% # Type of FU issued
system.cpu.iq.FU_type_0::MemWrite              221565      4.71%     99.12% # Type of FU issued
system.cpu.iq.FU_type_0::FloatMemRead           27196      0.58%     99.70% # Type of FU issued
system.cpu.iq.FU_type_0::FloatMemWrite          14020      0.30%    100.00% # Type of FU issued
system.cpu.iq.FU_type_0::IprAccess                  0      0.00%    100.00% # Type of FU issued
system.cpu.iq.FU_type_0::InstPrefetch               0      0.00%    100.00% # Type of FU issued
system.cpu.iq.FU_type_0::total                4699693                       # Type of FU issued
system.cpu.iq.fp_alu_accesses                  109182                       # Number of floating point alu accesses
system.cpu.iq.fp_inst_queue_reads              219750                       # Number of floating instruction queue reads
system.cpu.iq.fp_inst_queue_wakeup_accesses       105727                       # Number of floating instruction queue wakeup accesses
system.cpu.iq.fp_inst_queue_writes             149725                       # Number of floating instruction queue writes
system.cpu.iq.fu_busy_cnt                           0                       # FU busy when requested
system.cpu.iq.fu_busy_rate                          0                       # FU busy rate (busy events/executed inst)
system.cpu.iq.fu_full::No_OpClass                   0                       # attempts to use FU when none available
system.cpu.iq.fu_full::IntAlu                       0                       # attempts to use FU when none available
system.cpu.iq.fu_full::IntMult                      0                       # attempts to use FU when none available
system.cpu.iq.fu_full::IntDiv                       0                       # attempts to use FU when none available
system.cpu.iq.fu_full::FloatAdd                     0                       # attempts to use FU when none available
system.cpu.iq.fu_full::FloatCmp                     0                       # attempts to use FU when none available
system.cpu.iq.fu_full::FloatCvt                     0                       # attempts to use FU when none available
system.cpu.iq.fu_full::FloatMult                    0                       # attempts to use FU when none available
system.cpu.iq.fu_full::FloatMultAcc                 0                       # attempts to use FU when none available
system.cpu.iq.fu_full::FloatDiv                     0                       # attempts to use FU when none available
system.cpu.iq.fu_full::FloatMisc                    0                       # attempts to use FU when none available
system.cpu.iq.fu_full::FloatSqrt                    0                       # attempts to use FU when none available
system.cpu.iq.fu_full::SimdAdd                      0                       # attempts to use FU when none available
system.cpu.iq.fu_full::SimdAddAcc                   0                       # attempts to use FU when none available
system.cpu.iq.fu_full::SimdAlu                      0                       # attempts to use FU when none available
system.cpu.iq.fu_full::SimdCmp                      0                       # attempts to use FU when none available
system.cpu.iq.fu_full::SimdCvt                      0                       # attempts to use FU when none available
system.cpu.iq.fu_full::SimdMisc                     0                       # attempts to use FU when none available
system.cpu.iq.fu_full::SimdMult                     0                       # attempts to use FU when none available
system.cpu.iq.fu_full::SimdMultAcc                  0                       # attempts to use FU when none available
system.cpu.iq.fu_full::SimdShift                    0                       # attempts to use FU when none available
system.cpu.iq.fu_full::SimdShiftAcc                 0                       # attempts to use FU when none available
system.cpu.iq.fu_full::SimdDiv                      0                       # attempts to use FU when none available
system.cpu.iq.fu_full::SimdSqrt                     0                       # attempts to use FU when none available
system.cpu.iq.fu_full::SimdFloatAdd                 0                       # attempts to use FU when none available
system.cpu.iq.fu_full::SimdFloatAlu                 0                       # attempts to use FU when none available
system.cpu.iq.fu_full::SimdFloatCmp                 0                       # attempts to use FU when none available
system.cpu.iq.fu_full::SimdFloatCvt                 0                       # attempts to use FU when none available
system.cpu.iq.fu_full::SimdFloatDiv                 0                       # attempts to use FU when none available
system.cpu.iq.fu_full::SimdFloatMisc                0                       # attempts to use FU when none available
system.cpu.iq.fu_full::SimdFloatMult                0                       # attempts to use FU when none available
system.cpu.iq.fu_full::SimdFloatMultAcc             0                       # attempts to use FU when none available
system.cpu.iq.fu_full::SimdFloatSqrt                0                       # attempts to use FU when none available
system.cpu.iq.fu_full::SimdReduceAdd                0                       # attempts to use FU when none available
system.cpu.iq.fu_full::SimdReduceAlu                0                       # attempts to use FU when none available
system.cpu.iq.fu_full::SimdReduceCmp                0                       # attempts to use FU when none available
system.cpu.iq.fu_full::SimdFloatReduceAdd            0                       # attempts to use FU when none available
system.cpu.iq.fu_full::SimdFloatReduceCmp            0                       # attempts to use FU when none available
system.cpu.iq.fu_full::SimdAes                      0                       # attempts to use FU when none available
system.cpu.iq.fu_full::SimdAesMix                   0                       # attempts to use FU when none available
system.cpu.iq.fu_full::SimdSha1Hash                 0                       # attempts to use FU when none available
system.cpu.iq.fu_full::SimdSha1Hash2                0                       # attempts to use FU when none available
system.cpu.iq.fu_full::SimdSha256Hash               0                       # attempts to use FU when none available
system.cpu.iq.fu_full::SimdSha256Hash2              0                       # attempts to use FU when none available
system.cpu.iq.fu_full::SimdShaSigma2                0                       # attempts to use FU when none available
system.cpu.iq.fu_full::SimdShaSigma3                0                       # attempts to use FU when none available
system.cpu.iq.fu_full::SimdPredAlu                  0                       # attempts to use FU when none available
system.cpu.iq.fu_full::MemRead                      0                       # attempts to use FU when none available
system.cpu.iq.fu_full::MemWrite                     0                       # attempts to use FU when none available
system.cpu.iq.fu_full::FloatMemRead                 0                       # attempts to use FU when none available
system.cpu.iq.fu_full::FloatMemWrite                0                       # attempts to use FU when none available
system.cpu.iq.fu_full::IprAccess                    0                       # attempts to use FU when none available
system.cpu.iq.fu_full::InstPrefetch                 0                       # attempts to use FU when none available
system.cpu.iq.int_alu_accesses                4562008                       # Number of integer alu accesses
system.cpu.iq.int_inst_queue_reads           12003110                       # Number of integer instruction queue reads
system.cpu.iq.int_inst_queue_wakeup_accesses      4536273                       # Number of integer instruction queue wakeup accesses
system.cpu.iq.int_inst_queue_writes           5778550                       # Number of integer instruction queue writes
system.cpu.iq.iqInstsAdded                    5023025                       # Number of instructions added to the IQ (excludes non-spec)
system.cpu.iq.iqInstsIssued                   4699693                       # Number of instructions issued
system.cpu.iq.iqNonSpecInstsAdded                1119                       # Number of non-speculative instructions added to the IQ
system.cpu.iq.iqSquashedInstsExamined          904054                       # Number of squashed instructions iterated over during squash; mainly for profiling
system.cpu.iq.iqSquashedInstsIssued             18902                       # Number of squashed instructions issued
system.cpu.iq.iqSquashedNonSpecRemoved            377                       # Number of squashed non-spec instructions that were removed
system.cpu.iq.iqSquashedOperandsExamined      1339373                       # Number of squashed operands that are examined and possibly removed from graph
system.cpu.iq.issued_per_cycle::samples       2804575                       # Number of insts issued each cycle
system.cpu.iq.issued_per_cycle::mean         1.675724                       # Number of insts issued each cycle
system.cpu.iq.issued_per_cycle::stdev        1.663350                       # Number of insts issued each cycle
system.cpu.iq.issued_per_cycle::underflows            0      0.00%      0.00% # Number of insts issued each cycle
system.cpu.iq.issued_per_cycle::0             1205024     42.97%     42.97% # Number of insts issued each cycle
system.cpu.iq.issued_per_cycle::1              207866      7.41%     50.38% # Number of insts issued each cycle
system.cpu.iq.issued_per_cycle::2              342230     12.20%     62.58% # Number of insts issued each cycle
system.cpu.iq.issued_per_cycle::3              390453     13.92%     76.50% # Number of insts issued each cycle
system.cpu.iq.issued_per_cycle::4              659002     23.50%    100.00% # Number of insts issued each cycle
system.cpu.iq.issued_per_cycle::overflows            0      0.00%    100.00% # Number of insts issued each cycle
system.cpu.iq.issued_per_cycle::min_value            0                       # Number of insts issued each cycle
system.cpu.iq.issued_per_cycle::max_value            4                       # Number of insts issued each cycle
system.cpu.iq.issued_per_cycle::total         2804575                       # Number of insts issued each cycle
system.cpu.iq.rate                           1.584485                       # Inst issue rate
system.cpu.iq.vec_alu_accesses                      0                       # Number of vector alu accesses
system.cpu.iq.vec_inst_queue_reads                  0                       # Number of vector instruction queue reads
system.cpu.iq.vec_inst_queue_wakeup_accesses            0                       # Number of vector instruction queue wakeup accesses
system.cpu.iq.vec_inst_queue_writes                 0                       # Number of vector instruction queue writes
system.cpu.itb.rdAccesses                           0                       # TLB accesses on read requests
system.cpu.itb.rdMisses                             0                       # TLB misses on read requests
system.cpu.itb.wrAccesses                      290258                       # TLB accesses on write requests
system.cpu.itb.wrMisses                           360                       # TLB misses on write requests
system.cpu.memDep0.conflictingLoads             15137                       # Number of conflicting loads.
system.cpu.memDep0.conflictingStores             5881                       # Number of conflicting stores.
system.cpu.memDep0.insertedLoads               674010                       # Number of loads inserted to the mem dependence unit.
system.cpu.memDep0.insertedStores              244113                       # Number of stores inserted to the mem dependence unit.
system.cpu.misc_regfile_reads                 1779219                       # number of misc regfile reads
system.cpu.misc_regfile_writes                    684                       # number of misc regfile writes
system.cpu.numCycles                          2966069                       # number of cpu cycles simulated
system.cpu.numWorkItemsCompleted                    0                       # number of work items this cpu completed
system.cpu.numWorkItemsStarted                      0                       # number of work items this cpu started
system.cpu.process.numSyscalls                     57                       # Number of system calls
system.cpu.rename.BlockCycles                  841920                       # Number of cycles rename is blocking
system.cpu.rename.CommittedMaps               5531535                       # Number of HB maps that are committed
system.cpu.rename.FullRegisterEvents              159                       # Number of times there has been no free registers
system.cpu.rename.IQFullEvents                  47450                       # Number of times rename has blocked due to IQ full
system.cpu.rename.IdleCycles                   409628                       # Number of cycles rename is idle
system.cpu.rename.LQFullEvents                  15254                       # Number of times rename has blocked due to LQ full
system.cpu.rename.ROBFullEvents                  4510                       # Number of times rename has blocked due to ROB full
system.cpu.rename.RenameLookups              13474625                       # Number of register rename lookups that rename has made
system.cpu.rename.RenamedInsts                5168224                       # Number of instructions processed by rename
system.cpu.rename.RenamedOperands             6948582                       # Number of destination operands rename has renamed
system.cpu.rename.RunCycles                   1327174                       # Number of cycles rename is running
system.cpu.rename.SQFullEvents                  80261                       # Number of times rename has blocked due to SQ full
system.cpu.rename.SquashCycles                  24886                       # Number of cycles rename is squashing
system.cpu.rename.UnblockCycles                180419                       # Number of cycles rename is unblocking
system.cpu.rename.UndoneMaps                  1417024                       # Number of HB maps that are undone due to squashing
system.cpu.rename.fp_rename_lookups            187059                       # Number of floating rename lookups
system.cpu.rename.int_rename_lookups          8163178                       # Number of integer rename lookups
system.cpu.rename.serializeStallCycles          20548                       # count of cycles rename stalled for serializing inst
system.cpu.rename.serializingInsts                881                       # count of serializing insts renamed
system.cpu.rename.skidInsts                    208523                       # count of insts added to the skid buffer
system.cpu.rename.tempSerializingInsts            936                       # count of temporary serializing insts renamed
system.cpu.rob.rob_reads                      6905784                       # The number of ROB reads
system.cpu.rob.rob_writes                    10295071                       # The number of ROB writes
system.cpu.timesIdled                            2024                       # Number of times that the entire CPU went into an idle state and unscheduled itself
system.l2bus.snoop_filter.hit_multi_requests           12                       # Number of requests hitting in the snoop filter with multiple (>1) holders of the requested data.
system.l2bus.snoop_filter.hit_multi_snoops            1                       # Number of snoops hitting in the snoop filter with multiple (>1) holders of the requested data.
system.l2bus.snoop_filter.hit_single_requests        19042                       # Number of requests hitting in the snoop filter with a single holder of the requested data.
system.l2bus.snoop_filter.hit_single_snoops          437                       # Number of snoops hitting in the snoop filter with a single holder of the requested data.
system.l2bus.snoop_filter.tot_requests          39364                       # Total number of requests made to the snoop filter.
system.l2bus.snoop_filter.tot_snoops              438                       # Total number of snoops made to the snoop filter.
system.l2cache.prefetcher.num_hwpf_issued          638                       # number of hwpf issued
system.l2cache.prefetcher.pfBufferHit               0                       # number of redundant prefetches already in prefetch queue
system.l2cache.prefetcher.pfIdentified            638                       # number of prefetch candidates identified
system.l2cache.prefetcher.pfInCache                 0                       # number of redundant prefetches already in cache/mshr dropped
system.l2cache.prefetcher.pfRemovedFull             0                       # number of prefetches dropped due to prefetch queue size
system.l2cache.prefetcher.pfSpanPage              126                       # number of prefetches that crossed the page
system.membus.snoop_filter.hit_multi_requests            0                       # Number of requests hitting in the snoop filter with multiple (>1) holders of the requested data.
system.membus.snoop_filter.hit_multi_snoops            0                       # Number of snoops hitting in the snoop filter with multiple (>1) holders of the requested data.
system.membus.snoop_filter.hit_single_requests         9451                       # Number of requests hitting in the snoop filter with a single holder of the requested data.
system.membus.snoop_filter.hit_single_snoops            0                       # Number of snoops hitting in the snoop filter with a single holder of the requested data.
system.membus.snoop_filter.tot_requests         23022                       # Total number of requests made to the snoop filter.
system.membus.snoop_filter.tot_snoops               0                       # Total number of snoops made to the snoop filter.
system.membus.pwrStateResidencyTicks::UNDEFINED   1186427200                       # Cumulative time (in ticks) in various power states
system.membus.trans_dist::ReadResp              12124                       # Transaction distribution
system.membus.trans_dist::WritebackDirty         1357                       # Transaction distribution
system.membus.trans_dist::CleanEvict             8094                       # Transaction distribution
system.membus.trans_dist::ReadExReq              1447                       # Transaction distribution
system.membus.trans_dist::ReadExResp             1447                       # Transaction distribution
system.membus.trans_dist::ReadSharedReq         12124                       # Transaction distribution
system.membus.pkt_count_system.l2cache.mem_side::system.mem_ctrl.port        36593                       # Packet count per connected master and slave (bytes)
system.membus.pkt_count_system.l2cache.mem_side::total        36593                       # Packet count per connected master and slave (bytes)
system.membus.pkt_count::total                  36593                       # Packet count per connected master and slave (bytes)
system.membus.pkt_size_system.l2cache.mem_side::system.mem_ctrl.port       955392                       # Cumulative packet size per connected master and slave (bytes)
system.membus.pkt_size_system.l2cache.mem_side::total       955392                       # Cumulative packet size per connected master and slave (bytes)
system.membus.pkt_size::total                  955392                       # Cumulative packet size per connected master and slave (bytes)
system.membus.snoops                                0                       # Total snoops (count)
system.membus.snoopTraffic                          0                       # Total snoop traffic (bytes)
system.membus.snoop_fanout::samples             13571                       # Request fanout histogram
system.membus.snoop_fanout::mean                    0                       # Request fanout histogram
system.membus.snoop_fanout::stdev                   0                       # Request fanout histogram
system.membus.snoop_fanout::underflows              0      0.00%      0.00% # Request fanout histogram
system.membus.snoop_fanout::0                   13571    100.00%    100.00% # Request fanout histogram
system.membus.snoop_fanout::1                       0      0.00%    100.00% # Request fanout histogram
system.membus.snoop_fanout::overflows               0      0.00%    100.00% # Request fanout histogram
system.membus.snoop_fanout::min_value               0                       # Request fanout histogram
system.membus.snoop_fanout::max_value               0                       # Request fanout histogram
system.membus.snoop_fanout::total               13571                       # Request fanout histogram
system.membus.reqLayer2.occupancy            11405786                       # Layer occupancy (ticks)
system.membus.reqLayer2.utilization               1.0                       # Layer utilization (%)
system.membus.respLayer0.occupancy           29456214                       # Layer occupancy (ticks)
system.membus.respLayer0.utilization              2.5                       # Layer utilization (%)
system.l2bus.pwrStateResidencyTicks::UNDEFINED   1186427200                       # Cumulative time (in ticks) in various power states
system.l2bus.trans_dist::ReadResp               18159                       # Transaction distribution
system.l2bus.trans_dist::WritebackDirty          4145                       # Transaction distribution
system.l2bus.trans_dist::CleanEvict             24434                       # Transaction distribution
system.l2bus.trans_dist::HardPFReq                895                       # Transaction distribution
system.l2bus.trans_dist::UpgradeReq                 2                       # Transaction distribution
system.l2bus.trans_dist::UpgradeResp                2                       # Transaction distribution
system.l2bus.trans_dist::ReadExReq               2163                       # Transaction distribution
system.l2bus.trans_dist::ReadExResp              2163                       # Transaction distribution
system.l2bus.trans_dist::ReadSharedReq          18159                       # Transaction distribution
system.l2bus.pkt_count_system.cpu.icache.mem_side::system.l2cache.cpu_side         9998                       # Packet count per connected master and slave (bytes)
system.l2bus.pkt_count_system.cpu.dcache.mem_side::system.l2cache.cpu_side        49686                       # Packet count per connected master and slave (bytes)
system.l2bus.pkt_count::total                   59684                       # Packet count per connected master and slave (bytes)
system.l2bus.pkt_size_system.cpu.icache.mem_side::system.l2cache.cpu_side       218688                       # Cumulative packet size per connected master and slave (bytes)
system.l2bus.pkt_size_system.cpu.dcache.mem_side::system.l2cache.cpu_side      1260096                       # Cumulative packet size per connected master and slave (bytes)
system.l2bus.pkt_size::total                  1478784                       # Cumulative packet size per connected master and slave (bytes)
system.l2bus.snoops                             10438                       # Total snoops (count)
system.l2bus.snoopTraffic                       87104                       # Total snoop traffic (bytes)
system.l2bus.snoop_fanout::samples              30758                       # Request fanout histogram
system.l2bus.snoop_fanout::mean              0.014728                       # Request fanout histogram
system.l2bus.snoop_fanout::stdev             0.120733                       # Request fanout histogram
system.l2bus.snoop_fanout::underflows               0      0.00%      0.00% # Request fanout histogram
system.l2bus.snoop_fanout::0                    30306     98.53%     98.53% # Request fanout histogram
system.l2bus.snoop_fanout::1                      451      1.47%    100.00% # Request fanout histogram
system.l2bus.snoop_fanout::2                        1      0.00%    100.00% # Request fanout histogram
system.l2bus.snoop_fanout::overflows                0      0.00%    100.00% # Request fanout histogram
system.l2bus.snoop_fanout::min_value                0                       # Request fanout histogram
system.l2bus.snoop_fanout::max_value                2                       # Request fanout histogram
system.l2bus.snoop_fanout::total                30758                       # Request fanout histogram
system.l2bus.respLayer1.occupancy            20284397                       # Layer occupancy (ticks)
system.l2bus.respLayer1.utilization               1.7                       # Layer utilization (%)
system.l2bus.reqLayer0.occupancy             19413042                       # Layer occupancy (ticks)
system.l2bus.reqLayer0.utilization                1.6                       # Layer utilization (%)
system.l2bus.respLayer0.occupancy             4104399                       # Layer occupancy (ticks)
system.l2bus.respLayer0.utilization               0.3                       # Layer utilization (%)
system.clk_domain.clock                           400                       # Clock period in ticks
system.clk_domain.voltage_domain.voltage            1                       # Voltage in Volts
system.cpu.pwrStateResidencyTicks::ON      1186427200                       # Cumulative time (in ticks) in various power states
system.cpu.icache.pwrStateResidencyTicks::UNDEFINED   1186427200                       # Cumulative time (in ticks) in various power states
system.cpu.icache.demand_hits::.cpu.inst       286060                       # number of demand (read+write) hits
system.cpu.icache.demand_hits::total           286060                       # number of demand (read+write) hits
system.cpu.icache.overall_hits::.cpu.inst       286060                       # number of overall hits
system.cpu.icache.overall_hits::total          286060                       # number of overall hits
system.cpu.icache.demand_misses::.cpu.inst         4094                       # number of demand (read+write) misses
system.cpu.icache.demand_misses::total           4094                       # number of demand (read+write) misses
system.cpu.icache.overall_misses::.cpu.inst         4094                       # number of overall misses
system.cpu.icache.overall_misses::total          4094                       # number of overall misses
system.cpu.icache.demand_miss_latency::.cpu.inst    181849599                       # number of demand (read+write) miss cycles
system.cpu.icache.demand_miss_latency::total    181849599                       # number of demand (read+write) miss cycles
system.cpu.icache.overall_miss_latency::.cpu.inst    181849599                       # number of overall miss cycles
system.cpu.icache.overall_miss_latency::total    181849599                       # number of overall miss cycles
system.cpu.icache.demand_accesses::.cpu.inst       290154                       # number of demand (read+write) accesses
system.cpu.icache.demand_accesses::total       290154                       # number of demand (read+write) accesses
system.cpu.icache.overall_accesses::.cpu.inst       290154                       # number of overall (read+write) accesses
system.cpu.icache.overall_accesses::total       290154                       # number of overall (read+write) accesses
system.cpu.icache.demand_miss_rate::.cpu.inst     0.014110                       # miss rate for demand accesses
system.cpu.icache.demand_miss_rate::total     0.014110                       # miss rate for demand accesses
system.cpu.icache.overall_miss_rate::.cpu.inst     0.014110                       # miss rate for overall accesses
system.cpu.icache.overall_miss_rate::total     0.014110                       # miss rate for overall accesses
system.cpu.icache.demand_avg_miss_latency::.cpu.inst 44418.563508                       # average overall miss latency
system.cpu.icache.demand_avg_miss_latency::total 44418.563508                       # average overall miss latency
system.cpu.icache.overall_avg_miss_latency::.cpu.inst 44418.563508                       # average overall miss latency
system.cpu.icache.overall_avg_miss_latency::total 44418.563508                       # average overall miss latency
system.cpu.icache.blocked_cycles::no_mshrs           97                       # number of cycles access was blocked
system.cpu.icache.blocked_cycles::no_targets            0                       # number of cycles access was blocked
system.cpu.icache.blocked::no_mshrs                 3                       # number of cycles access was blocked
system.cpu.icache.blocked::no_targets               0                       # number of cycles access was blocked
system.cpu.icache.avg_blocked_cycles::no_mshrs    32.333333                       # average number of cycles each access was blocked
system.cpu.icache.avg_blocked_cycles::no_targets          nan                       # average number of cycles each access was blocked
system.cpu.icache.writebacks::.writebacks            1                       # number of writebacks
system.cpu.icache.writebacks::total                 1                       # number of writebacks
system.cpu.icache.demand_mshr_hits::.cpu.inst          674                       # number of demand (read+write) MSHR hits
system.cpu.icache.demand_mshr_hits::total          674                       # number of demand (read+write) MSHR hits
system.cpu.icache.overall_mshr_hits::.cpu.inst          674                       # number of overall MSHR hits
system.cpu.icache.overall_mshr_hits::total          674                       # number of overall MSHR hits
system.cpu.icache.demand_mshr_misses::.cpu.inst         3420                       # number of demand (read+write) MSHR misses
system.cpu.icache.demand_mshr_misses::total         3420                       # number of demand (read+write) MSHR misses
system.cpu.icache.overall_mshr_misses::.cpu.inst         3420                       # number of overall MSHR misses
system.cpu.icache.overall_mshr_misses::total         3420                       # number of overall MSHR misses
system.cpu.icache.demand_mshr_miss_latency::.cpu.inst    148785999                       # number of demand (read+write) MSHR miss cycles
system.cpu.icache.demand_mshr_miss_latency::total    148785999                       # number of demand (read+write) MSHR miss cycles
system.cpu.icache.overall_mshr_miss_latency::.cpu.inst    148785999                       # number of overall MSHR miss cycles
system.cpu.icache.overall_mshr_miss_latency::total    148785999                       # number of overall MSHR miss cycles
system.cpu.icache.demand_mshr_miss_rate::.cpu.inst     0.011787                       # mshr miss rate for demand accesses
system.cpu.icache.demand_mshr_miss_rate::total     0.011787                       # mshr miss rate for demand accesses
system.cpu.icache.overall_mshr_miss_rate::.cpu.inst     0.011787                       # mshr miss rate for overall accesses
system.cpu.icache.overall_mshr_miss_rate::total     0.011787                       # mshr miss rate for overall accesses
system.cpu.icache.demand_avg_mshr_miss_latency::.cpu.inst 43504.678070                       # average overall mshr miss latency
system.cpu.icache.demand_avg_mshr_miss_latency::total 43504.678070                       # average overall mshr miss latency
system.cpu.icache.overall_avg_mshr_miss_latency::.cpu.inst 43504.678070                       # average overall mshr miss latency
system.cpu.icache.overall_avg_mshr_miss_latency::total 43504.678070                       # average overall mshr miss latency
system.cpu.icache.replacements                   3162                       # number of replacements
system.cpu.icache.ReadReq_hits::.cpu.inst       286060                       # number of ReadReq hits
system.cpu.icache.ReadReq_hits::total          286060                       # number of ReadReq hits
system.cpu.icache.ReadReq_misses::.cpu.inst         4094                       # number of ReadReq misses
system.cpu.icache.ReadReq_misses::total          4094                       # number of ReadReq misses
system.cpu.icache.ReadReq_miss_latency::.cpu.inst    181849599                       # number of ReadReq miss cycles
system.cpu.icache.ReadReq_miss_latency::total    181849599                       # number of ReadReq miss cycles
system.cpu.icache.ReadReq_accesses::.cpu.inst       290154                       # number of ReadReq accesses(hits+misses)
system.cpu.icache.ReadReq_accesses::total       290154                       # number of ReadReq accesses(hits+misses)
system.cpu.icache.ReadReq_miss_rate::.cpu.inst     0.014110                       # miss rate for ReadReq accesses
system.cpu.icache.ReadReq_miss_rate::total     0.014110                       # miss rate for ReadReq accesses
system.cpu.icache.ReadReq_avg_miss_latency::.cpu.inst 44418.563508                       # average ReadReq miss latency
system.cpu.icache.ReadReq_avg_miss_latency::total 44418.563508                       # average ReadReq miss latency
system.cpu.icache.ReadReq_mshr_hits::.cpu.inst          674                       # number of ReadReq MSHR hits
system.cpu.icache.ReadReq_mshr_hits::total          674                       # number of ReadReq MSHR hits
system.cpu.icache.ReadReq_mshr_misses::.cpu.inst         3420                       # number of ReadReq MSHR misses
system.cpu.icache.ReadReq_mshr_misses::total         3420                       # number of ReadReq MSHR misses
system.cpu.icache.ReadReq_mshr_miss_latency::.cpu.inst    148785999                       # number of ReadReq MSHR miss cycles
system.cpu.icache.ReadReq_mshr_miss_latency::total    148785999                       # number of ReadReq MSHR miss cycles
system.cpu.icache.ReadReq_mshr_miss_rate::.cpu.inst     0.011787                       # mshr miss rate for ReadReq accesses
system.cpu.icache.ReadReq_mshr_miss_rate::total     0.011787                       # mshr miss rate for ReadReq accesses
system.cpu.icache.ReadReq_avg_mshr_miss_latency::.cpu.inst 43504.678070                       # average ReadReq mshr miss latency
system.cpu.icache.ReadReq_avg_mshr_miss_latency::total 43504.678070                       # average ReadReq mshr miss latency
system.cpu.icache.prefetcher.pwrStateResidencyTicks::UNDEFINED   1186427200                       # Cumulative time (in ticks) in various power states
system.cpu.icache.tags.pwrStateResidencyTicks::UNDEFINED   1186427200                       # Cumulative time (in ticks) in various power states
system.cpu.icache.tags.tagsinuse           253.634699                       # Cycle average of tags in use
system.cpu.icache.tags.total_refs              256649                       # Total number of references to valid blocks.
system.cpu.icache.tags.sampled_refs              3164                       # Sample count of references to valid blocks.
system.cpu.icache.tags.avg_refs             81.115360                       # Average number of references to valid blocks.
system.cpu.icache.tags.warmup_cycle             66400                       # Cycle when the warmup percentage was hit.
system.cpu.icache.tags.occ_blocks::.cpu.inst   253.634699                       # Average occupied blocks per requestor
system.cpu.icache.tags.occ_percent::.cpu.inst     0.990761                       # Average percentage of cache occupancy
system.cpu.icache.tags.occ_percent::total     0.990761                       # Average percentage of cache occupancy
system.cpu.icache.tags.occ_task_id_blocks::1024          256                       # Occupied blocks per task id
system.cpu.icache.tags.age_task_id_blocks_1024::0          100                       # Occupied blocks per task id
system.cpu.icache.tags.age_task_id_blocks_1024::1            2                       # Occupied blocks per task id
system.cpu.icache.tags.age_task_id_blocks_1024::2          153                       # Occupied blocks per task id
system.cpu.icache.tags.age_task_id_blocks_1024::3            1                       # Occupied blocks per task id
system.cpu.icache.tags.occ_task_id_percent::1024            1                       # Percentage of cache occupancy per task id
system.cpu.icache.tags.tag_accesses            583728                       # Number of tag accesses
system.cpu.icache.tags.data_accesses           583728                       # Number of data accesses
system.cpu.dtb.walker.pwrStateResidencyTicks::UNDEFINED   1186427200                       # Cumulative time (in ticks) in various power states
system.cpu.interrupts.clk_domain.clock           6400                       # Clock period in ticks
system.cpu.itb.walker.pwrStateResidencyTicks::UNDEFINED   1186427200                       # Cumulative time (in ticks) in various power states
system.cpu.dcache.pwrStateResidencyTicks::UNDEFINED   1186427200                       # Cumulative time (in ticks) in various power states
system.cpu.dcache.demand_hits::.cpu.data       773479                       # number of demand (read+write) hits
system.cpu.dcache.demand_hits::total           773479                       # number of demand (read+write) hits
system.cpu.dcache.overall_hits::.cpu.data       773479                       # number of overall hits
system.cpu.dcache.overall_hits::total          773479                       # number of overall hits
system.cpu.dcache.demand_misses::.cpu.data        34446                       # number of demand (read+write) misses
system.cpu.dcache.demand_misses::total          34446                       # number of demand (read+write) misses
system.cpu.dcache.overall_misses::.cpu.data        34446                       # number of overall misses
system.cpu.dcache.overall_misses::total         34446                       # number of overall misses
system.cpu.dcache.demand_miss_latency::.cpu.data   1676533999                       # number of demand (read+write) miss cycles
system.cpu.dcache.demand_miss_latency::total   1676533999                       # number of demand (read+write) miss cycles
system.cpu.dcache.overall_miss_latency::.cpu.data   1676533999                       # number of overall miss cycles
system.cpu.dcache.overall_miss_latency::total   1676533999                       # number of overall miss cycles
system.cpu.dcache.demand_accesses::.cpu.data       807925                       # number of demand (read+write) accesses
system.cpu.dcache.demand_accesses::total       807925                       # number of demand (read+write) accesses
system.cpu.dcache.overall_accesses::.cpu.data       807925                       # number of overall (read+write) accesses
system.cpu.dcache.overall_accesses::total       807925                       # number of overall (read+write) accesses
system.cpu.dcache.demand_miss_rate::.cpu.data     0.042635                       # miss rate for demand accesses
system.cpu.dcache.demand_miss_rate::total     0.042635                       # miss rate for demand accesses
system.cpu.dcache.overall_miss_rate::.cpu.data     0.042635                       # miss rate for overall accesses
system.cpu.dcache.overall_miss_rate::total     0.042635                       # miss rate for overall accesses
system.cpu.dcache.demand_avg_miss_latency::.cpu.data 48671.369651                       # average overall miss latency
system.cpu.dcache.demand_avg_miss_latency::total 48671.369651                       # average overall miss latency
system.cpu.dcache.overall_avg_miss_latency::.cpu.data 48671.369651                       # average overall miss latency
system.cpu.dcache.overall_avg_miss_latency::total 48671.369651                       # average overall miss latency
system.cpu.dcache.blocked_cycles::no_mshrs        27693                       # number of cycles access was blocked
system.cpu.dcache.blocked_cycles::no_targets          175                       # number of cycles access was blocked
system.cpu.dcache.blocked::no_mshrs               709                       # number of cycles access was blocked
system.cpu.dcache.blocked::no_targets               3                       # number of cycles access was blocked
system.cpu.dcache.avg_blocked_cycles::no_mshrs    39.059238                       # average number of cycles each access was blocked
system.cpu.dcache.avg_blocked_cycles::no_targets    58.333333                       # average number of cycles each access was blocked
system.cpu.dcache.unused_prefetches              1724                       # number of HardPF blocks evicted w/o reference
system.cpu.dcache.writebacks::.writebacks         2787                       # number of writebacks
system.cpu.dcache.writebacks::total              2787                       # number of writebacks
system.cpu.dcache.demand_mshr_hits::.cpu.data        21916                       # number of demand (read+write) MSHR hits
system.cpu.dcache.demand_mshr_hits::total        21916                       # number of demand (read+write) MSHR hits
system.cpu.dcache.overall_mshr_hits::.cpu.data        21916                       # number of overall MSHR hits
system.cpu.dcache.overall_mshr_hits::total        21916                       # number of overall MSHR hits
system.cpu.dcache.demand_mshr_misses::.cpu.data        12530                       # number of demand (read+write) MSHR misses
system.cpu.dcache.demand_mshr_misses::total        12530                       # number of demand (read+write) MSHR misses
system.cpu.dcache.overall_mshr_misses::.cpu.data        12530                       # number of overall MSHR misses
system.cpu.dcache.overall_mshr_misses::.cpu.dcache.prefetcher         4374                       # number of overall MSHR misses
system.cpu.dcache.overall_mshr_misses::total        16904                       # number of overall MSHR misses
system.cpu.dcache.demand_mshr_miss_latency::.cpu.data    578985599                       # number of demand (read+write) MSHR miss cycles
system.cpu.dcache.demand_mshr_miss_latency::total    578985599                       # number of demand (read+write) MSHR miss cycles
system.cpu.dcache.overall_mshr_miss_latency::.cpu.data    578985599                       # number of overall MSHR miss cycles
system.cpu.dcache.overall_mshr_miss_latency::.cpu.dcache.prefetcher    251605318                       # number of overall MSHR miss cycles
system.cpu.dcache.overall_mshr_miss_latency::total    830590917                       # number of overall MSHR miss cycles
system.cpu.dcache.demand_mshr_miss_rate::.cpu.data     0.015509                       # mshr miss rate for demand accesses
system.cpu.dcache.demand_mshr_miss_rate::total     0.015509                       # mshr miss rate for demand accesses
system.cpu.dcache.overall_mshr_miss_rate::.cpu.data     0.015509                       # mshr miss rate for overall accesses
system.cpu.dcache.overall_mshr_miss_rate::.cpu.dcache.prefetcher          inf                       # mshr miss rate for overall accesses
system.cpu.dcache.overall_mshr_miss_rate::total     0.020923                       # mshr miss rate for overall accesses
system.cpu.dcache.demand_avg_mshr_miss_latency::.cpu.data 46207.948843                       # average overall mshr miss latency
system.cpu.dcache.demand_avg_mshr_miss_latency::total 46207.948843                       # average overall mshr miss latency
system.cpu.dcache.overall_avg_mshr_miss_latency::.cpu.data 46207.948843                       # average overall mshr miss latency
system.cpu.dcache.overall_avg_mshr_miss_latency::.cpu.dcache.prefetcher 57522.935071                       # average overall mshr miss latency
system.cpu.dcache.overall_avg_mshr_miss_latency::total 49135.761772                       # average overall mshr miss latency
system.cpu.dcache.replacements                  15878                       # number of replacements
system.cpu.dcache.ReadReq_hits::.cpu.data       562170                       # number of ReadReq hits
system.cpu.dcache.ReadReq_hits::total          562170                       # number of ReadReq hits
system.cpu.dcache.ReadReq_misses::.cpu.data        32238                       # number of ReadReq misses
system.cpu.dcache.ReadReq_misses::total         32238                       # number of ReadReq misses
system.cpu.dcache.ReadReq_miss_latency::.cpu.data   1563179600                       # number of ReadReq miss cycles
system.cpu.dcache.ReadReq_miss_latency::total   1563179600                       # number of ReadReq miss cycles
system.cpu.dcache.ReadReq_accesses::.cpu.data       594408                       # number of ReadReq accesses(hits+misses)
system.cpu.dcache.ReadReq_accesses::total       594408                       # number of ReadReq accesses(hits+misses)
system.cpu.dcache.ReadReq_miss_rate::.cpu.data     0.054235                       # miss rate for ReadReq accesses
system.cpu.dcache.ReadReq_miss_rate::total     0.054235                       # miss rate for ReadReq accesses
system.cpu.dcache.ReadReq_avg_miss_latency::.cpu.data 48488.727589                       # average ReadReq miss latency
system.cpu.dcache.ReadReq_avg_miss_latency::total 48488.727589                       # average ReadReq miss latency
system.cpu.dcache.ReadReq_mshr_hits::.cpu.data        21873                       # number of ReadReq MSHR hits
system.cpu.dcache.ReadReq_mshr_hits::total        21873                       # number of ReadReq MSHR hits
system.cpu.dcache.ReadReq_mshr_misses::.cpu.data        10365                       # number of ReadReq MSHR misses
system.cpu.dcache.ReadReq_mshr_misses::total        10365                       # number of ReadReq MSHR misses
system.cpu.dcache.ReadReq_mshr_miss_latency::.cpu.data    469114400                       # number of ReadReq MSHR miss cycles
system.cpu.dcache.ReadReq_mshr_miss_latency::total    469114400                       # number of ReadReq MSHR miss cycles
system.cpu.dcache.ReadReq_mshr_miss_rate::.cpu.data     0.017438                       # mshr miss rate for ReadReq accesses
system.cpu.dcache.ReadReq_mshr_miss_rate::total     0.017438                       # mshr miss rate for ReadReq accesses
system.cpu.dcache.ReadReq_avg_mshr_miss_latency::.cpu.data 45259.469368                       # average ReadReq mshr miss latency
system.cpu.dcache.ReadReq_avg_mshr_miss_latency::total 45259.469368                       # average ReadReq mshr miss latency
system.cpu.dcache.WriteReq_hits::.cpu.data       211309                       # number of WriteReq hits
system.cpu.dcache.WriteReq_hits::total         211309                       # number of WriteReq hits
system.cpu.dcache.WriteReq_misses::.cpu.data         2208                       # number of WriteReq misses
system.cpu.dcache.WriteReq_misses::total         2208                       # number of WriteReq misses
system.cpu.dcache.WriteReq_miss_latency::.cpu.data    113354399                       # number of WriteReq miss cycles
system.cpu.dcache.WriteReq_miss_latency::total    113354399                       # number of WriteReq miss cycles
system.cpu.dcache.WriteReq_accesses::.cpu.data       213517                       # number of WriteReq accesses(hits+misses)
system.cpu.dcache.WriteReq_accesses::total       213517                       # number of WriteReq accesses(hits+misses)
system.cpu.dcache.WriteReq_miss_rate::.cpu.data     0.010341                       # miss rate for WriteReq accesses
system.cpu.dcache.WriteReq_miss_rate::total     0.010341                       # miss rate for WriteReq accesses
system.cpu.dcache.WriteReq_avg_miss_latency::.cpu.data 51338.043025                       # average WriteReq miss latency
system.cpu.dcache.WriteReq_avg_miss_latency::total 51338.043025                       # average WriteReq miss latency
[...]
system.l2cache.demand_mshr_misses::.cpu.data          162                       # number of demand (read+write) MSHR misses
system.l2cache.demand_mshr_misses::.cpu.dcache.prefetcher           30                       # number of demand (read+write) MSHR misses
system.l2cache.demand_mshr_misses::total          448                       # number of demand (read+write) MSHR misses
system.l2cache.overall_mshr_misses::.cpu.inst          256                       # number of overall MSHR misses
system.l2cache.overall_mshr_misses::.cpu.data          162                       # number of overall MSHR misses
system.l2cache.overall_mshr_misses::.cpu.dcache.prefetcher           30                       # number of overall MSHR misses
system.l2cache.overall_mshr_misses::total          448                       # number of overall MSHR misses
system.l2cache.demand_mshr_miss_latency::.cpu.inst     15008800                       # number of demand (read+write) MSHR miss cycles
system.l2cache.demand_mshr_miss_latency::.cpu.data      9528000                       # number of demand (read+write) MSHR miss cycles
system.l2cache.demand_mshr_miss_latency::.cpu.dcache.prefetcher      1808373                       # number of demand (read+write) MSHR miss cycles
system.l2cache.demand_mshr_miss_latency::total     26345173                       # number of demand (read+write) MSHR miss cycles
system.l2cache.overall_mshr_miss_latency::.cpu.inst     15008800                       # number of overall MSHR miss cycles
system.l2cache.overall_mshr_miss_latency::.cpu.data      9528000                       # number of overall MSHR miss cycles
system.l2cache.overall_mshr_miss_latency::.cpu.dcache.prefetcher      1808373                       # number of overall MSHR miss cycles
system.l2cache.overall_mshr_miss_latency::total     26345173                       # number of overall MSHR miss cycles
system.l2cache.demand_mshr_miss_rate::.cpu.inst     0.238140                       # mshr miss rate for demand accesses
system.l2cache.demand_mshr_miss_rate::.cpu.data     0.498462                       # mshr miss rate for demand accesses
system.l2cache.demand_mshr_miss_rate::.cpu.dcache.prefetcher     0.833333                       # mshr miss rate for demand accesses
system.l2cache.demand_mshr_miss_rate::total     0.311978                       # mshr miss rate for demand accesses
system.l2cache.overall_mshr_miss_rate::.cpu.inst     0.238140                       # mshr miss rate for overall accesses
system.l2cache.overall_mshr_miss_rate::.cpu.data     0.498462                       # mshr miss rate for overall accesses
system.l2cache.overall_mshr_miss_rate::.cpu.dcache.prefetcher     0.833333                       # mshr miss rate for overall accesses
system.l2cache.overall_mshr_miss_rate::total     0.311978                       # mshr miss rate for overall accesses
system.l2cache.demand_avg_mshr_miss_latency::.cpu.inst 58628.125000                       # average overall mshr miss latency
system.l2cache.demand_avg_mshr_miss_latency::.cpu.data 58814.814815                       # average overall mshr miss latency
system.l2cache.demand_avg_mshr_miss_latency::.cpu.dcache.prefetcher 60279.100000                       # average overall mshr miss latency
system.l2cache.demand_avg_mshr_miss_latency::total 58806.189732                       # average overall mshr miss latency
system.l2cache.overall_avg_mshr_miss_latency::.cpu.inst 58628.125000                       # average overall mshr miss latency
system.l2cache.overall_avg_mshr_miss_latency::.cpu.data 58814.814815                       # average overall mshr miss latency
system.l2cache.overall_avg_mshr_miss_latency::.cpu.dcache.prefetcher 60279.100000                       # average overall mshr miss latency
system.l2cache.overall_avg_mshr_miss_latency::total 58806.189732                       # average overall mshr miss latency
system.l2cache.replacements                       460                       # number of replacements
system.l2cache.WritebackDirty_hits::.writebacks          137                       # number of WritebackDirty hits
system.l2cache.WritebackDirty_hits::total          137                       # number of WritebackDirty hits
system.l2cache.WritebackDirty_accesses::.writebacks          137                       # number of WritebackDirty accesses(hits+misses)
system.l2cache.WritebackDirty_accesses::total          137                       # number of WritebackDirty accesses(hits+misses)
system.l2cache.CleanEvict_mshr_misses::.writebacks            9                       # number of CleanEvict MSHR misses
system.l2cache.CleanEvict_mshr_misses::total            9                       # number of CleanEvict MSHR misses
system.l2cache.CleanEvict_mshr_miss_rate::.writebacks          inf                       # mshr miss rate for CleanEvict accesses
system.l2cache.CleanEvict_mshr_miss_rate::total          inf                       # mshr miss rate for CleanEvict accesses
system.l2cache.ReadExReq_hits::.cpu.data           30                       # number of ReadExReq hits
system.l2cache.ReadExReq_hits::total               30                       # number of ReadExReq hits
system.l2cache.ReadExReq_misses::.cpu.data           48                       # number of ReadExReq misses
system.l2cache.ReadExReq_misses::total             48                       # number of ReadExReq misses
system.l2cache.ReadExReq_miss_latency::.cpu.data      3319200                       # number of ReadExReq miss cycles
system.l2cache.ReadExReq_miss_latency::total      3319200                       # number of ReadExReq miss cycles
system.l2cache.ReadExReq_accesses::.cpu.data           78                       # number of ReadExReq accesses(hits+misses)
system.l2cache.ReadExReq_accesses::total           78                       # number of ReadExReq accesses(hits+misses)
system.l2cache.ReadExReq_miss_rate::.cpu.data     0.615385                       # miss rate for ReadExReq accesses
system.l2cache.ReadExReq_miss_rate::total     0.615385                       # miss rate for ReadExReq accesses
system.l2cache.ReadExReq_avg_miss_latency::.cpu.data        69150                       # average ReadExReq miss latency
system.l2cache.ReadExReq_avg_miss_latency::total        69150                       # average ReadExReq miss latency
system.l2cache.ReadExReq_mshr_misses::.cpu.data           48                       # number of ReadExReq MSHR misses
system.l2cache.ReadExReq_mshr_misses::total           48                       # number of ReadExReq MSHR misses
system.l2cache.ReadExReq_mshr_miss_latency::.cpu.data      2935200                       # number of ReadExReq MSHR miss cycles
system.l2cache.ReadExReq_mshr_miss_latency::total      2935200                       # number of ReadExReq MSHR miss cycles
system.l2cache.ReadExReq_mshr_miss_rate::.cpu.data     0.615385                       # mshr miss rate for ReadExReq accesses
system.l2cache.ReadExReq_mshr_miss_rate::total     0.615385                       # mshr miss rate for ReadExReq accesses
system.l2cache.ReadExReq_avg_mshr_miss_latency::.cpu.data        61150                       # average ReadExReq mshr miss latency
system.l2cache.ReadExReq_avg_mshr_miss_latency::total        61150                       # average ReadExReq mshr miss latency
system.l2cache.ReadSharedReq_hits::.cpu.inst          819                       # number of ReadSharedReq hits
system.l2cache.ReadSharedReq_hits::.cpu.data          133                       # number of ReadSharedReq hits
system.l2cache.ReadSharedReq_hits::.cpu.dcache.prefetcher            6                       # number of ReadSharedReq hits
system.l2cache.ReadSharedReq_hits::total          958                       # number of ReadSharedReq hits
system.l2cache.ReadSharedReq_misses::.cpu.inst          256                       # number of ReadSharedReq misses
system.l2cache.ReadSharedReq_misses::.cpu.data          114                       # number of ReadSharedReq misses
system.l2cache.ReadSharedReq_misses::.cpu.dcache.prefetcher           30                       # number of ReadSharedReq misses
system.l2cache.ReadSharedReq_misses::total          400                       # number of ReadSharedReq misses
system.l2cache.ReadSharedReq_miss_latency::.cpu.inst     17056800                       # number of ReadSharedReq miss cycles
system.l2cache.ReadSharedReq_miss_latency::.cpu.data      7504800                       # number of ReadSharedReq miss cycles
system.l2cache.ReadSharedReq_miss_latency::.cpu.dcache.prefetcher      2048373                       # number of ReadSharedReq miss cycles
system.l2cache.ReadSharedReq_miss_latency::total     26609973                       # number of ReadSharedReq miss cycles
system.l2cache.ReadSharedReq_accesses::.cpu.inst         1075                       # number of ReadSharedReq accesses(hits+misses)
system.l2cache.ReadSharedReq_accesses::.cpu.data          247                       # number of ReadSharedReq accesses(hits+misses)
system.l2cache.ReadSharedReq_accesses::.cpu.dcache.prefetcher           36                       # number of ReadSharedReq accesses(hits+misses)
system.l2cache.ReadSharedReq_accesses::total         1358                       # number of ReadSharedReq accesses(hits+misses)
system.l2cache.ReadSharedReq_miss_rate::.cpu.inst     0.238140                       # miss rate for ReadSharedReq accesses
system.l2cache.ReadSharedReq_miss_rate::.cpu.data     0.461538                       # miss rate for ReadSharedReq accesses
system.l2cache.ReadSharedReq_miss_rate::.cpu.dcache.prefetcher     0.833333                       # miss rate for ReadSharedReq accesses
system.l2cache.ReadSharedReq_miss_rate::total     0.294551                       # miss rate for ReadSharedReq accesses
system.l2cache.ReadSharedReq_avg_miss_latency::.cpu.inst 66628.125000                       # average ReadSharedReq miss latency
system.l2cache.ReadSharedReq_avg_miss_latency::.cpu.data 65831.578947                       # average ReadSharedReq miss latency
system.l2cache.ReadSharedReq_avg_miss_latency::.cpu.dcache.prefetcher 68279.100000                       # average ReadSharedReq miss latency
system.l2cache.ReadSharedReq_avg_miss_latency::total 66524.932500                       # average ReadSharedReq miss latency
system.l2cache.ReadSharedReq_mshr_misses::.cpu.inst          256                       # number of ReadSharedReq MSHR misses
system.l2cache.ReadSharedReq_mshr_misses::.cpu.data          114                       # number of ReadSharedReq MSHR misses
system.l2cache.ReadSharedReq_mshr_misses::.cpu.dcache.prefetcher           30                       # number of ReadSharedReq MSHR misses
system.l2cache.ReadSharedReq_mshr_misses::total          400                       # number of ReadSharedReq MSHR misses
system.l2cache.ReadSharedReq_mshr_miss_latency::.cpu.inst     15008800                       # number of ReadSharedReq MSHR miss cycles
system.l2cache.ReadSharedReq_mshr_miss_latency::.cpu.data      6592800                       # number of ReadSharedReq MSHR miss cycles
system.l2cache.ReadSharedReq_mshr_miss_latency::.cpu.dcache.prefetcher      1808373                       # number of ReadSharedReq MSHR miss cycles
system.l2cache.ReadSharedReq_mshr_miss_latency::total     23409973                       # number of ReadSharedReq MSHR miss cycles
system.l2cache.ReadSharedReq_mshr_miss_rate::.cpu.inst     0.238140                       # mshr miss rate for ReadSharedReq accesses
system.l2cache.ReadSharedReq_mshr_miss_rate::.cpu.data     0.461538                       # mshr miss rate for ReadSharedReq accesses
system.l2cache.ReadSharedReq_mshr_miss_rate::.cpu.dcache.prefetcher     0.833333                       # mshr miss rate for ReadSharedReq accesses
system.l2cache.ReadSharedReq_mshr_miss_rate::total     0.294551                       # mshr miss rate for ReadSharedReq accesses
system.l2cache.ReadSharedReq_avg_mshr_miss_latency::.cpu.inst 58628.125000                       # average ReadSharedReq mshr miss latency
system.l2cache.ReadSharedReq_avg_mshr_miss_latency::.cpu.data 57831.578947                       # average ReadSharedReq mshr miss latency
system.l2cache.ReadSharedReq_avg_mshr_miss_latency::.cpu.dcache.prefetcher 60279.100000                       # average ReadSharedReq mshr miss latency
system.l2cache.ReadSharedReq_avg_mshr_miss_latency::total 58524.932500                       # average ReadSharedReq mshr miss latency
system.l2cache.prefetcher.pwrStateResidencyTicks::UNDEFINED    127683600                       # Cumulative time (in ticks) in various power states
system.l2cache.tags.pwrStateResidencyTicks::UNDEFINED    127683600                       # Cumulative time (in ticks) in various power states
system.l2cache.tags.tagsinuse                    4096                       # Cycle average of tags in use
system.l2cache.tags.total_refs                  16240                       # Total number of references to valid blocks.
system.l2cache.tags.sampled_refs                 4556                       # Sample count of references to valid blocks.
system.l2cache.tags.avg_refs                 3.564530                       # Average number of references to valid blocks.
system.l2cache.tags.warmup_cycle                    0                       # Cycle when the warmup percentage was hit.
system.l2cache.tags.occ_blocks::.writebacks    43.798066                       # Average occupied blocks per requestor
system.l2cache.tags.occ_blocks::.cpu.inst  1126.072913                       # Average occupied blocks per requestor
system.l2cache.tags.occ_blocks::.cpu.data  1844.413541                       # Average occupied blocks per requestor
system.l2cache.tags.occ_blocks::.cpu.dcache.prefetcher   976.340175                       # Average occupied blocks per requestor
system.l2cache.tags.occ_blocks::.l2cache.prefetcher   105.375306                       # Average occupied blocks per requestor
system.l2cache.tags.occ_percent::.writebacks     0.010693                       # Average percentage of cache occupancy
system.l2cache.tags.occ_percent::.cpu.inst     0.274920                       # Average percentage of cache occupancy
system.l2cache.tags.occ_percent::.cpu.data     0.450296                       # Average percentage of cache occupancy
system.l2cache.tags.occ_percent::.cpu.dcache.prefetcher     0.238364                       # Average percentage of cache occupancy
system.l2cache.tags.occ_percent::.l2cache.prefetcher     0.025726                       # Average percentage of cache occupancy
system.l2cache.tags.occ_percent::total       1.000000                       # Average percentage of cache occupancy
system.l2cache.tags.occ_task_id_blocks::1022          996                       # Occupied blocks per task id
system.l2cache.tags.occ_task_id_blocks::1024         3100                       # Occupied blocks per task id
system.l2cache.tags.age_task_id_blocks_1022::0            7                       # Occupied blocks per task id
system.l2cache.tags.age_task_id_blocks_1022::1            3                       # Occupied blocks per task id
system.l2cache.tags.age_task_id_blocks_1022::2          943                       # Occupied blocks per task id
system.l2cache.tags.age_task_id_blocks_1022::3           43                       # Occupied blocks per task id
system.l2cache.tags.age_task_id_blocks_1024::0          169                       # Occupied blocks per task id
system.l2cache.tags.age_task_id_blocks_1024::1          127                       # Occupied blocks per task id
system.l2cache.tags.age_task_id_blocks_1024::2         2574                       # Occupied blocks per task id
system.l2cache.tags.age_task_id_blocks_1024::3          230                       # Occupied blocks per task id
system.l2cache.tags.occ_task_id_percent::1022     0.243164                       # Percentage of cache occupancy per task id
system.l2cache.tags.occ_task_id_percent::1024     0.756836                       # Percentage of cache occupancy per task id
system.l2cache.tags.tag_accesses                23436                       # Number of tag accesses
system.l2cache.tags.data_accesses               23436                       # Number of data accesses
system.mem_ctrl.pwrStateResidencyTicks::UNDEFINED    127683600                       # Cumulative time (in ticks) in various power states
system.mem_ctrl.bytes_read::.cpu.inst           16384                       # Number of bytes read from this memory
system.mem_ctrl.bytes_read::.cpu.data           10368                       # Number of bytes read from this memory
system.mem_ctrl.bytes_read::.cpu.dcache.prefetcher         1920                       # Number of bytes read from this memory
system.mem_ctrl.bytes_read::total               28672                       # Number of bytes read from this memory
system.mem_ctrl.bytes_inst_read::.cpu.inst        16384                       # Number of instructions bytes read from this memory
system.mem_ctrl.bytes_inst_read::total          16384                       # Number of instructions bytes read from this memory
system.mem_ctrl.bytes_written::.writebacks         1728                       # Number of bytes written to this memory
system.mem_ctrl.bytes_written::total             1728                       # Number of bytes written to this memory
system.mem_ctrl.num_reads::.cpu.inst              256                       # Number of read requests responded to by this memory
system.mem_ctrl.num_reads::.cpu.data              162                       # Number of read requests responded to by this memory
system.mem_ctrl.num_reads::.cpu.dcache.prefetcher           30                       # Number of read requests responded to by this memory
system.mem_ctrl.num_reads::total                  448                       # Number of read requests responded to by this memory
system.mem_ctrl.num_writes::.writebacks            27                       # Number of write requests responded to by this memory
system.mem_ctrl.num_writes::total                  27                       # Number of write requests responded to by this memory
system.mem_ctrl.bw_read::.cpu.inst          128317184                       # Total read bandwidth from this memory (bytes/s)
system.mem_ctrl.bw_read::.cpu.data           81200718                       # Total read bandwidth from this memory (bytes/s)
system.mem_ctrl.bw_read::.cpu.dcache.prefetcher     15037170                       # Total read bandwidth from this memory (bytes/s)
system.mem_ctrl.bw_read::total              224555072                       # Total read bandwidth from this memory (bytes/s)
system.mem_ctrl.bw_inst_read::.cpu.inst     128317184                       # Instruction read bandwidth from this memory (bytes/s)
system.mem_ctrl.bw_inst_read::total         128317184                       # Instruction read bandwidth from this memory (bytes/s)
system.mem_ctrl.bw_write::.writebacks        13533453                       # Write bandwidth from this memory (bytes/s)
system.mem_ctrl.bw_write::total              13533453                       # Write bandwidth from this memory (bytes/s)
system.mem_ctrl.bw_total::.writebacks        13533453                       # Total bandwidth to/from this memory (bytes/s)
system.mem_ctrl.bw_total::.cpu.inst         128317184                       # Total bandwidth to/from this memory (bytes/s)
system.mem_ctrl.bw_total::.cpu.data          81200718                       # Total bandwidth to/from this memory (bytes/s)
system.mem_ctrl.bw_total::.cpu.dcache.prefetcher     15037170                       # Total bandwidth to/from this memory (bytes/s)
system.mem_ctrl.bw_total::total             238088525                       # Total bandwidth to/from this memory (bytes/s)

---------- End Simulation Statistics   ----------
