
---------- Begin Simulation Statistics ----------
final_tick                                 1357421200                       # Number of ticks from beginning of simulation (restored from checkpoints and never reset)
host_inst_rate                                 192847                       # Simulator instruction rate (inst/s)
host_mem_usage                                4406852                       # Number of bytes of host memory used
host_op_rate                                   355077                       # Simulator op (including micro ops) rate (op/s)
host_seconds                                    15.30                       # Real time elapsed on the host
host_tick_rate                               88739182                       # Simulator tick rate (ticks/s)
sim_freq                                 1000000000000                       # Frequency of simulated ticks
sim_insts                                     2949920                       # Number of instructions simulated
sim_ops                                       5431515                       # Number of ops (including micro ops) simulated
sim_seconds                                  0.001357                       # Number of seconds simulated
sim_ticks                                  1357421200                       # Number of ticks simulated
system.cpu.branchPred.BTBCorrect                    0                       # Number of correct BTB predictions (this stat may not work properly.
system.cpu.branchPred.BTBHitPct              0.000000                       # BTB Hit Percentage
system.cpu.branchPred.BTBHits                       0                       # Number of BTB hits
system.cpu.branchPred.BTBLookups               586130                       # Number of BTB lookups
system.cpu.branchPred.RASInCorrect                 10                       # Number of incorrect RAS predictions.
system.cpu.branchPred.condIncorrect             24698                       # Number of conditional branches incorrect
system.cpu.branchPred.condPredicted            600101                       # Number of conditional branches predicted
system.cpu.branchPred.indirectHits             307173                       # Number of indirect target hits.
system.cpu.branchPred.indirectLookups          586130                       # Number of indirect predictor lookups.
system.cpu.branchPred.indirectMisses           278957                       # Number of indirect misses.
system.cpu.branchPred.lookups                  655121                       # Number of BP lookups
system.cpu.branchPred.usedRAS                   25747                       # Number of times the RAS was used to get a target.
system.cpu.branchPredindirectMispredicted        12324                       # Number of mispredicted indirect branches.
system.cpu.cc_regfile_reads                   3365135                       # number of cc regfile reads
system.cpu.cc_regfile_writes                  2459262                       # number of cc regfile writes
system.cpu.commit.amos                              0                       # Number of atomic instructions committed
system.cpu.commit.branchMispredicts             24813                       # The number of times a branch was mispredicted
system.cpu.commit.branches                     510160                       # Number of branches committed
system.cpu.commit.bw_lim_events                911769                       # number cycles where commit BW limit reached
system.cpu.commit.commitNonSpecStalls             760                       # The number of times commit has been forced to stall to communicate backwards
system.cpu.commit.commitSquashedInsts          897044                       # The number of squashed insts skipped by commit
system.cpu.commit.committedInsts              2949920                       # Number of instructions committed
system.cpu.commit.committedOps                5431515                       # Number of ops (including micro ops) committed
system.cpu.commit.committed_per_cycle::samples      2987433                       # Number of insts commited each cycle
system.cpu.commit.committed_per_cycle::mean     1.818121                       # Number of insts commited each cycle
system.cpu.commit.committed_per_cycle::stdev     1.735063                       # Number of insts commited each cycle
system.cpu.commit.committed_per_cycle::underflows            0      0.00%      0.00% # Number of insts commited each cycle
system.cpu.commit.committed_per_cycle::0      1212931     40.60%     40.60% # Number of insts commited each cycle
system.cpu.commit.committed_per_cycle::1       267274      8.95%     49.55% # Number of insts commited each cycle
system.cpu.commit.committed_per_cycle::2       269212      9.01%     58.56% # Number of insts commited each cycle
system.cpu.commit.committed_per_cycle::3       326247     10.92%     69.48% # Number of insts commited each cycle
system.cpu.commit.committed_per_cycle::4       911769     30.52%    100.00% # Number of insts commited each cycle
system.cpu.commit.committed_per_cycle::overflows            0      0.00%    100.00% # Number of insts commited each cycle
system.cpu.commit.committed_per_cycle::min_value            0                       # Number of insts commited each cycle
system.cpu.commit.committed_per_cycle::max_value            4                       # Number of insts commited each cycle
system.cpu.commit.committed_per_cycle::total      2987433                       # Number of insts commited each cycle
system.cpu.commit.fp_insts                     177337                       # Number of committed floating point instructions.
system.cpu.commit.function_calls                23725                       # Number of function calls committed.
system.cpu.commit.int_insts                   5294105                       # Number of committed integer instructions.
system.cpu.commit.loads                        725162                       # Number of loads committed
system.cpu.commit.membars                           1                       # Number of memory barriers committed
system.cpu.commit.op_class_0::No_OpClass        28762      0.53%      0.53% # Class of committed instruction
system.cpu.commit.op_class_0::IntAlu          4171098     76.79%     77.32% # Class of committed instruction
system.cpu.commit.op_class_0::IntMult            5806      0.11%     77.43% # Class of committed instruction
system.cpu.commit.op_class_0::IntDiv            38160      0.70%     78.13% # Class of committed instruction
system.cpu.commit.op_class_0::FloatAdd           6996      0.13%     78.26% # Class of committed instruction
system.cpu.commit.op_class_0::FloatCmp              0      0.00%     78.26% # Class of committed instruction
system.cpu.commit.op_class_0::FloatCvt           1248      0.02%     78.29% # Class of committed instruction
system.cpu.commit.op_class_0::FloatMult             0      0.00%     78.29% # Class of committed instruction
system.cpu.commit.op_class_0::FloatMultAcc            0      0.00%     78.29% # Class of committed instruction
system.cpu.commit.op_class_0::FloatDiv              0      0.00%     78.29% # Class of committed instruction
system.cpu.commit.op_class_0::FloatMisc             0      0.00%     78.29% # Class of committed instruction
system.cpu.commit.op_class_0::FloatSqrt             0      0.00%     78.29% # Class of committed instruction
system.cpu.commit.op_class_0::SimdAdd            6274      0.12%     78.40% # Class of committed instruction
system.cpu.commit.op_class_0::SimdAddAcc            0      0.00%     78.40% # Class of committed instruction
system.cpu.commit.op_class_0::SimdAlu           27729      0.51%     78.91% # Class of committed instruction
system.cpu.commit.op_class_0::SimdCmp               0      0.00%     78.91% # Class of committed instruction
system.cpu.commit.op_class_0::SimdCvt           28646      0.53%     79.44% # Class of committed instruction
system.cpu.commit.op_class_0::SimdMisc          43527      0.80%     80.24% # Class of committed instruction
system.cpu.commit.op_class_0::SimdMult              0      0.00%     80.24% # Class of committed instruction
system.cpu.commit.op_class_0::SimdMultAcc            0      0.00%     80.24% # Class of committed instruction
system.cpu.commit.op_class_0::SimdShift          1242      0.02%     80.26% # Class of committed instruction
system.cpu.commit.op_class_0::SimdShiftAcc            0      0.00%     80.26% # Class of committed instruction
system.cpu.commit.op_class_0::SimdDiv               0      0.00%     80.26% # Class of committed instruction
system.cpu.commit.op_class_0::SimdSqrt              0      0.00%     80.26% # Class of committed instruction
system.cpu.commit.op_class_0::SimdFloatAdd            0      0.00%     80.26% # Class of committed instruction
system.cpu.commit.op_class_0::SimdFloatAlu            0      0.00%     80.26% # Class of committed instruction
system.cpu.commit.op_class_0::SimdFloatCmp            0      0.00%     80.26% # Class of committed instruction
system.cpu.commit.op_class_0::SimdFloatCvt            0      0.00%     80.26% # Class of committed instruction
system.cpu.commit.op_class_0::SimdFloatDiv            0      0.00%     80.26% # Class of committed instruction
system.cpu.commit.op_class_0::SimdFloatMisc            0      0.00%     80.26% # Class of committed instruction
system.cpu.commit.op_class_0::SimdFloatMult            0      0.00%     80.26% # Class of committed instruction
system.cpu.commit.op_class_0::SimdFloatMultAcc            0      0.00%     80.26% # Class of committed instruction
system.cpu.commit.op_class_0::SimdFloatSqrt            0      0.00%     80.26% # Class of committed instruction
system.cpu.commit.op_class_0::SimdReduceAdd            0      0.00%     80.26% # Class of committed instruction
system.cpu.commit.op_class_0::SimdReduceAlu            0      0.00%     80.26% # Class of committed instruction
system.cpu.commit.op_class_0::SimdReduceCmp            0      0.00%     80.26% # Class of committed instruction
system.cpu.commit.op_class_0::SimdFloatReduceAdd            0      0.00%     80.26% # Class of committed instruction
system.cpu.commit.op_class_0::SimdFloatReduceCmp            0      0.00%     80.26% # Class of committed instruction
system.cpu.commit.op_class_0::SimdAes               0      0.00%     80.26% # Class of committed instruction
system.cpu.commit.op_class_0::SimdAesMix            0      0.00%     80.26% # Class of committed instruction
system.cpu.commit.op_class_0::SimdSha1Hash            0      0.00%     80.26% # Class of committed instruction
system.cpu.commit.op_class_0::SimdSha1Hash2            0      0.00%     80.26% # Class of committed instruction
system.cpu.commit.op_class_0::SimdSha256Hash            0      0.00%     80.26% # Class of committed instruction
system.cpu.commit.op_class_0::SimdSha256Hash2            0      0.00%     80.26% # Class of committed instruction
system.cpu.commit.op_class_0::SimdShaSigma2            0      0.00%     80.26% # Class of committed instruction
system.cpu.commit.op_class_0::SimdShaSigma3            0      0.00%     80.26% # Class of committed instruction
system.cpu.commit.op_class_0::SimdPredAlu            0      0.00%     80.26% # Class of committed instruction
system.cpu.commit.op_class_0::MemRead          693480     12.77%     93.03% # Class of committed instruction
system.cpu.commit.op_class_0::MemWrite         330054      6.08%     99.11% # Class of committed instruction
system.cpu.commit.op_class_0::FloatMemRead        31682      0.58%     99.69% # Class of committed instruction
system.cpu.commit.op_class_0::FloatMemWrite        16811      0.31%    100.00% # Class of committed instruction
system.cpu.commit.op_class_0::IprAccess             0      0.00%    100.00% # Class of committed instruction
system.cpu.commit.op_class_0::InstPrefetch            0      0.00%    100.00% # Class of committed instruction
system.cpu.commit.op_class_0::total           5431515                       # Class of committed instruction
system.cpu.commit.refs                        1072027                       # Number of memory references committed
system.cpu.commit.swp_count                         0                       # Number of s/w prefetches committed
system.cpu.commit.vec_insts                         0                       # Number of committed Vector instructions.
system.cpu.committedInsts                     2949920                       # Number of Instructions Simulated
system.cpu.committedOps                       5431515                       # Number of Ops (including micro ops) Simulated
system.cpu.cpi                               1.150388                       # CPI: Cycles Per Instruction
system.cpu.cpi_total                         1.150388                       # CPI: Total CPI of All Threads
system.cpu.dcache.prefetcher.num_hwpf_issued         8382                       # number of hwpf issued
system.cpu.dcache.prefetcher.pfBufferHit        34640                       # number of redundant prefetches already in prefetch queue
system.cpu.dcache.prefetcher.pfIdentified        50558                       # number of prefetch candidates identified
system.cpu.dcache.prefetcher.pfInCache              0                       # number of redundant prefetches already in cache/mshr dropped
system.cpu.dcache.prefetcher.pfRemovedFull            0                       # number of prefetches dropped due to prefetch queue size
system.cpu.dcache.prefetcher.pfSpanPage          4534                       # number of prefetches that crossed the page
system.cpu.decode.BlockedCycles               1043841                       # Number of cycles decode is blocked
system.cpu.decode.DecodedInsts                6548352                       # Number of instructions handled by decode
system.cpu.decode.IdleCycles                   427561                       # Number of cycles decode is idle
system.cpu.decode.RunCycles                   1641753                       # Number of cycles decode is running
system.cpu.decode.SquashCycles                  24879                       # Number of cycles decode is squashing
system.cpu.decode.UnblockCycles                 93651                       # Number of cycles decode is unblocking
system.cpu.dtb.rdAccesses                      808796                       # TLB accesses on read requests
system.cpu.dtb.rdMisses                          1990                       # TLB misses on read requests
system.cpu.dtb.wrAccesses                      367198                       # TLB accesses on write requests
system.cpu.dtb.wrMisses                           167                       # TLB misses on write requests
system.cpu.fetch.Branches                      655121                       # Number of branches that fetch encountered
system.cpu.fetch.CacheLines                    361149                       # Number of cache lines fetched
system.cpu.fetch.Cycles                       2752593                       # Number of cycles fetch has run and was not squashing or blocked
system.cpu.fetch.IcacheSquashes                  4742                       # Number of outstanding Icache misses that were squashed
system.cpu.fetch.Insts                        3726530                       # Number of instructions fetch has processed
system.cpu.fetch.MiscStallCycles                  159                       # Number of cycles fetch has spent waiting on interrupts, or bad addresses, or out of MSHRs
system.cpu.fetch.PendingQuiesceStallCycles            8                       # Number of stall cycles due to pending quiesce instructions
system.cpu.fetch.PendingTrapStallCycles           779                       # Number of stall cycles due to pending traps
system.cpu.fetch.SquashCycles                   49758                       # Number of cycles fetch has spent squashing
system.cpu.fetch.branchRate                  0.193049                       # Number of branch fetches per cycle
system.cpu.fetch.icacheStallCycles             453267                       # Number of cycles fetch is stalled on an Icache miss
system.cpu.fetch.predictedBranches             332920                       # Number of branches that fetch has predicted taken
system.cpu.fetch.rate                        1.098120                       # Number of inst fetches per cycle
system.cpu.fetch.rateDist::samples            3231685                       # Number of instructions fetched each cycle (Total)
system.cpu.fetch.rateDist::mean              2.112379                       # Number of instructions fetched each cycle (Total)
system.cpu.fetch.rateDist::stdev             1.918163                       # Number of instructions fetched each cycle (Total)
system.cpu.fetch.rateDist::underflows               0      0.00%      0.00% # Number of instructions fetched each cycle (Total)
system.cpu.fetch.rateDist::0                  1374386     42.53%     42.53% # Number of instructions fetched each cycle (Total)
system.cpu.fetch.rateDist::1                   106332      3.29%     45.82% # Number of instructions fetched each cycle (Total)
system.cpu.fetch.rateDist::2                    87265      2.70%     48.52% # Number of instructions fetched each cycle (Total)
system.cpu.fetch.rateDist::3                   109125      3.38%     51.90% # Number of instructions fetched each cycle (Total)
system.cpu.fetch.rateDist::4                  1554577     48.10%    100.00% # Number of instructions fetched each cycle (Total)
system.cpu.fetch.rateDist::overflows                0      0.00%    100.00% # Number of instructions fetched each cycle (Total)
system.cpu.fetch.rateDist::min_value                0                       # Number of instructions fetched each cycle (Total)
system.cpu.fetch.rateDist::max_value                4                       # Number of instructions fetched each cycle (Total)
system.cpu.fetch.rateDist::total              3231685                       # Number of instructions fetched each cycle (Total)
system.cpu.fp_regfile_reads                    294580                       # number of floating regfile reads
system.cpu.fp_regfile_writes                   157303                       # number of floating regfile writes
system.cpu.fuPool.fu_ticks_busy::IntALU(0)    307044800                       # Total ticks fu was busy
system.cpu.fuPool.fu_ticks_busy::IntALU(1)    307044800                       # Total ticks fu was busy
system.cpu.fuPool.fu_ticks_busy::IntALU(2)    307044800                       # Total ticks fu was busy
system.cpu.fuPool.fu_ticks_busy::IntALU(3)    307044800                       # Total ticks fu was busy
system.cpu.fuPool.fu_ticks_busy::IntALU(4)    307044400                       # Total ticks fu was busy
system.cpu.fuPool.fu_ticks_busy::IntALU(5)    307044400                       # Total ticks fu was busy
system.cpu.fuPool.fu_ticks_busy::IntMultDiv(0)      9634000                       # Total ticks fu was busy
system.cpu.fuPool.fu_ticks_busy::IntMultDiv(1)      9633600                       # Total ticks fu was busy
system.cpu.fuPool.fu_ticks_busy::FP_ALU(0)       987200                       # Total ticks fu was busy
system.cpu.fuPool.fu_ticks_busy::FP_ALU(1)       987200                       # Total ticks fu was busy
system.cpu.fuPool.fu_ticks_busy::FP_ALU(2)       986800                       # Total ticks fu was busy
system.cpu.fuPool.fu_ticks_busy::FP_ALU(3)       986800                       # Total ticks fu was busy
system.cpu.fuPool.fu_ticks_busy::FP_MultDiv(0)            0                       # Total ticks fu was busy
system.cpu.fuPool.fu_ticks_busy::FP_MultDiv(1)            0                       # Total ticks fu was busy
system.cpu.fuPool.fu_ticks_busy::SIMD_Unit(0)     11495600                       # Total ticks fu was busy
system.cpu.fuPool.fu_ticks_busy::SIMD_Unit(1)     11653600                       # Total ticks fu was busy
system.cpu.fuPool.fu_ticks_busy::SIMD_Unit(2)     11852000                       # Total ticks fu was busy
system.cpu.fuPool.fu_ticks_busy::SIMD_Unit(3)     11138800                       # Total ticks fu was busy
system.cpu.fuPool.fu_ticks_busy::PredALU(0)            0                       # Total ticks fu was busy
system.cpu.fuPool.fu_ticks_busy::RdWrPort(0)    118762000                       # Total ticks fu was busy
system.cpu.fuPool.fu_ticks_busy::RdWrPort(1)    119236400                       # Total ticks fu was busy
system.cpu.fuPool.fu_ticks_busy::RdWrPort(2)    118972000                       # Total ticks fu was busy
system.cpu.fuPool.fu_ticks_busy::RdWrPort(3)    119261200                       # Total ticks fu was busy
system.cpu.fuPool.fu_ticks_busy::IprPort(0)            0                       # Total ticks fu was busy
system.cpu.fuPool.fu_ticks_busy::total     2387855200                       # Total ticks fu was busy
system.cpu.icache.prefetcher.num_hwpf_issued            0                       # number of hwpf issued
system.cpu.icache.prefetcher.pfBufferHit            0                       # number of redundant prefetches already in prefetch queue
system.cpu.icache.prefetcher.pfIdentified            0                       # number of prefetch candidates identified
system.cpu.icache.prefetcher.pfInCache              0                       # number of redundant prefetches already in cache/mshr dropped
system.cpu.icache.prefetcher.pfRemovedFull            0                       # number of prefetches dropped due to prefetch queue size
system.cpu.icache.prefetcher.pfSpanPage             0                       # number of prefetches that crossed the page
system.cpu.idleCycles                          161869                       # Total number of cycles that the CPU has spent unscheduled due to idling
system.cpu.iew.branchMispredicts                29287                       # Number of branch mispredicts detected at execute
system.cpu.iew.exec_branches                   541196                       # Number of branches executed
system.cpu.iew.exec_nop                             0                       # number of nop insts executed
system.cpu.iew.exec_rate                     1.759111                       # Inst execution rate
system.cpu.iew.exec_refs                      1177580                       # number of memory reference insts executed
system.cpu.iew.exec_stores                     367185                       # Number of stores executed
system.cpu.iew.exec_swp                             0                       # number of swp insts executed
system.cpu.iew.iewBlockCycles                  696147                       # Number of cycles IEW is blocking
system.cpu.iew.iewDispLoadInsts                841018                       # Number of dispatched load instructions
system.cpu.iew.iewDispNonSpecInsts                962                       # Number of dispatched non-speculative instructions
system.cpu.iew.iewDispSquashedInsts               561                       # Number of squashed instructions skipped by dispatch
system.cpu.iew.iewDispStoreInsts               377430                       # Number of dispatched store instructions
system.cpu.iew.iewDispatchedInsts             6328520                       # Number of instructions dispatched to IQ
system.cpu.iew.iewExecLoadInsts                810395                       # Number of load instructions executed
system.cpu.iew.iewExecSquashedInsts             34880                       # Number of squashed instructions skipped in execute
system.cpu.iew.iewExecutedInsts               5969638                       # Number of executed instructions
system.cpu.iew.iewIQFullEvents                   3433                       # Number of times the IQ has become full, causing a stall
system.cpu.iew.iewIdleCycles                        0                       # Number of cycles IEW is idle
system.cpu.iew.iewLSQFullEvents                 10417                       # Number of times the LSQ has become full, causing a stall
system.cpu.iew.iewSquashCycles                  24879                       # Number of cycles IEW is squashing
system.cpu.iew.iewUnblockCycles                 16732                       # Number of cycles IEW is unblocking
system.cpu.iew.lsq.thread0.blockedLoads             0                       # Number of blocked loads due to partial load-store forwarding
system.cpu.iew.lsq.thread0.cacheBlocked           620                       # Number of times an access to memory failed due to the cache being blocked
system.cpu.iew.lsq.thread0.forwLoads            68687                       # Number of loads that had data forwarded from stores
system.cpu.iew.lsq.thread0.ignoredResponses          254                       # Number of memory responses ignored because the instruction is squashed
system.cpu.iew.lsq.thread0.invAddrLoads             0                       # Number of loads ignored due to an invalid address
system.cpu.iew.lsq.thread0.invAddrSwpfs             0                       # Number of software prefetches ignored due to an invalid address
system.cpu.iew.lsq.thread0.memOrderViolation           80                       # Number of memory ordering violations
system.cpu.iew.lsq.thread0.rescheduledLoads           18                       # Number of loads that were rescheduled
system.cpu.iew.lsq.thread0.squashedLoads       115854                       # Number of loads squashed
system.cpu.iew.lsq.thread0.squashedStores        30564                       # Number of stores squashed
system.cpu.iew.memOrderViolationEvents             80                       # Number of memory order violations
system.cpu.iew.predictedNotTakenIncorrect        20975                       # Number of branches that were predicted not taken incorrectly
system.cpu.iew.predictedTakenIncorrect           8312                       # Number of branches that were predicted taken incorrectly
system.cpu.iew.wb_consumers                   7987325                       # num instructions consuming a value
system.cpu.iew.wb_count                       5947414                       # cumulative count of insts written-back
system.cpu.iew.wb_fanout                     0.575956                       # average fanout of values written-back
system.cpu.iew.wb_producers                   4600344                       # num instructions producing a value
system.cpu.iew.wb_rate                       1.752562                       # insts written-back per cycle
system.cpu.iew.wb_sent                        5954392                       # cumulative count of insts sent to commit
system.cpu.int_regfile_reads                  9159965                       # number of integer regfile reads
system.cpu.int_regfile_writes                 4959793                       # number of integer regfile writes
system.cpu.ipc                               0.869272                       # IPC: Instructions Per Cycle
system.cpu.ipc_total                         0.869272                       # IPC: Total IPC of All Threads
system.cpu.iq.FU_type_0::No_OpClass             34880      0.58%      0.58% # Type of FU issued
system.cpu.iq.FU_type_0::IntAlu               4605672     76.70%     77.28% # Type of FU issued
system.cpu.iq.FU_type_0::IntMult                 5845      0.10%     77.38% # Type of FU issued
system.cpu.iq.FU_type_0::IntDiv                 42324      0.70%     78.09% # Type of FU issued
system.cpu.iq.FU_type_0::FloatAdd                8558      0.14%     78.23% # Type of FU issued
system.cpu.iq.FU_type_0::FloatCmp                   0      0.00%     78.23% # Type of FU issued
system.cpu.iq.FU_type_0::FloatCvt                1312      0.02%     78.25% # Type of FU issued
system.cpu.iq.FU_type_0::FloatMult                  0      0.00%     78.25% # Type of FU issued
system.cpu.iq.FU_type_0::FloatMultAcc               0      0.00%     78.25% # Type of FU issued
system.cpu.iq.FU_type_0::FloatDiv                   0      0.00%     78.25% # Type of FU issued
system.cpu.iq.FU_type_0::FloatMisc                  0      0.00%     78.25% # Type of FU issued
system.cpu.iq.FU_type_0::FloatSqrt                  0      0.00%     78.25% # Type of FU issued
system.cpu.iq.FU_type_0::SimdAdd                 6927      0.12%     78.37% # Type of FU issued
system.cpu.iq.FU_type_0::SimdAddAcc                 0      0.00%     78.37% # Type of FU issued
system.cpu.iq.FU_type_0::SimdAlu                31496      0.52%     78.89% # Type of FU issued
system.cpu.iq.FU_type_0::SimdCmp                    0      0.00%     78.89% # Type of FU issued
system.cpu.iq.FU_type_0::SimdCvt                30503      0.51%     79.40% # Type of FU issued
system.cpu.iq.FU_type_0::SimdMisc               44113      0.73%     80.13% # Type of FU issued
system.cpu.iq.FU_type_0::SimdMult                   0      0.00%     80.13% # Type of FU issued
system.cpu.iq.FU_type_0::SimdMultAcc                0      0.00%     80.13% # Type of FU issued
system.cpu.iq.FU_type_0::SimdShift               2311      0.04%     80.17% # Type of FU issued
system.cpu.iq.FU_type_0::SimdShiftAcc               0      0.00%     80.17% # Type of FU issued
system.cpu.iq.FU_type_0::SimdDiv                    0      0.00%     80.17% # Type of FU issued
system.cpu.iq.FU_type_0::SimdSqrt                   0      0.00%     80.17% # Type of FU issued
system.cpu.iq.FU_type_0::SimdFloatAdd               0      0.00%     80.17% # Type of FU issued
system.cpu.iq.FU_type_0::SimdFloatAlu               0      0.00%     80.17% # Type of FU issued
system.cpu.iq.FU_type_0::SimdFloatCmp               0      0.00%     80.17% # Type of FU issued
system.cpu.iq.FU_type_0::SimdFloatCvt               0      0.00%     80.17% # Type of FU issued
system.cpu.iq.FU_type_0::SimdFloatDiv               0      0.00%     80.17% # Type of FU issued
system.cpu.iq.FU_type_0::SimdFloatMisc              0      0.00%     80.17% # Type of FU issued
system.cpu.iq.FU_type_0::SimdFloatMult              0      0.00%     80.17% # Type of FU issued
system.cpu.iq.FU_type_0::SimdFloatMultAcc            0      0.00%     80.17% # Type of FU issued
system.cpu.iq.FU_type_0::SimdFloatSqrt              0      0.00%     80.17% # Type of FU issued
system.cpu.iq.FU_type_0::SimdReduceAdd              0      0.00%     80.17% # Type of FU issued
system.cpu.iq.FU_type_0::SimdReduceAlu              0      0.00%     80.17% # Type of FU issued
system.cpu.iq.FU_type_0::SimdReduceCmp              0      0.00%     80.17% # Type of FU issued
system.cpu.iq.FU_type_0::SimdFloatReduceAdd            0      0.00%     80.17% # Type of FU issued
system.cpu.iq.FU_type_0::SimdFloatReduceCmp            0      0.00%     80.17% # Type of FU issued
system.cpu.iq.FU_type_0::SimdAes                    0      0.00%     80.17% # Type of FU issued
system.cpu.iq.FU_type_0::SimdAesMix                 0      0.00%     80.17% # Type of FU issued
system.cpu.iq.FU_type_0::SimdSha1Hash               0      0.00%     80.17% # Type of FU issued
system.cpu.iq.FU_type_0::SimdSha1Hash2              0      0.00%     80.17% # Type of FU issued
system.cpu.iq.FU_type_0::SimdSha256Hash             0      0.00%     80.17% # Type of FU issued
system.cpu.iq.FU_type_0::SimdSha256Hash2            0      0.00%     80.17% # Type of FU issued
system.cpu.iq.FU_type_0::SimdShaSigma2              0      0.00%     80.17% # Type of FU issued
system.cpu.iq.FU_type_0::SimdShaSigma3              0      0.00%     80.17% # Type of FU issued
system.cpu.iq.FU_type_0::SimdPredAlu                0      0.00%     80.17% # Type of FU issued
system.cpu.iq.FU_type_0::MemRead               782805     13.04%     93.21% # Type of FU issued
system.cpu.iq.FU_type_0::MemWrite              351723      5.86%     99.07% # Type of FU issued
system.cpu.iq.FU_type_0::FloatMemRead           37918      0.63%     99.70% # Type of FU issued
system.cpu.iq.FU_type_0::FloatMemWrite          18135      0.30%    100.00% # Type of FU issued
system.cpu.iq.FU_type_0::IprAccess                  0      0.00%    100.00% # Type of FU issued
system.cpu.iq.FU_type_0::InstPrefetch               0      0.00%    100.00% # Type of FU issued
system.cpu.iq.FU_type_0::total                6004522                       # Type of FU issued
system.cpu.iq.fp_alu_accesses                  194619                       # Number of floating point alu accesses
system.cpu.iq.fp_inst_queue_reads              390572                       # Number of floating instruction queue reads
system.cpu.iq.fp_inst_queue_wakeup_accesses       191072                       # Number of floating instruction queue wakeup accesses
system.cpu.iq.fp_inst_queue_writes             238029                       # Number of floating instruction queue writes
system.cpu.iq.fu_busy_cnt                           0                       # FU busy when requested
system.cpu.iq.fu_busy_rate                          0                       # FU busy rate (busy events/executed inst)
system.cpu.iq.fu_full::No_OpClass                   0                       # attempts to use FU when none available
system.cpu.iq.fu_full::IntAlu                       0                       # attempts to use FU when none available
system.cpu.iq.fu_full::IntMult                      0                       # attempts to use FU when none available
system.cpu.iq.fu_full::IntDiv                       0                       # attempts to use FU when none available
system.cpu.iq.fu_full::FloatAdd                     0                       # attempts to use FU when none available
system.cpu.iq.fu_full::FloatCmp                     0                       # attempts to use FU when none available
system.cpu.iq.fu_full::FloatCvt                     0                       # attempts to use FU when none available
system.cpu.iq.fu_full::FloatMult                    0                       # attempts to use FU when none available
system.cpu.iq.fu_full::FloatMultAcc                 0                       # attempts to use FU when none available
system.cpu.iq.fu_full::FloatDiv                     0                       # attempts to use FU when none available
system.cpu.iq.fu_full::FloatMisc                    0                       # attempts to use FU when none available
system.cpu.iq.fu_full::FloatSqrt                    0                       # attempts to use FU when none available
system.cpu.iq.fu_full::SimdAdd                      0                       # attempts to use FU when none available
system.cpu.iq.fu_full::SimdAddAcc                   0                       # attempts to use FU when none available
system.cpu.iq.fu_full::SimdAlu                      0                       # attempts to use FU when none available
system.cpu.iq.fu_full::SimdCmp                      0                       # attempts to use FU when none available
system.cpu.iq.fu_full::SimdCvt                      0                       # attempts to use FU when none available
system.cpu.iq.fu_full::SimdMisc                     0                       # attempts to use FU when none available
system.cpu.iq.fu_full::SimdMult                     0                       # attempts to use FU when none available
system.cpu.iq.fu_full::SimdMultAcc                  0                       # attempts to use FU when none available
system.cpu.iq.fu_full::SimdShift                    0                       # attempts to use FU when none available
system.cpu.iq.fu_full::SimdShiftAcc                 0                       # attempts to use FU when none available
system.cpu.iq.fu_full::SimdDiv                      0                       # attempts to use FU when none available
system.cpu.iq.fu_full::SimdSqrt                     0                       # attempts to use FU when none available
system.cpu.iq.fu_full::SimdFloatAdd                 0                       # attempts to use FU when none available
system.cpu.iq.fu_full::SimdFloatAlu                 0                       # attempts to use FU when none available
system.cpu.iq.fu_full::SimdFloatCmp                 0                       # attempts to use FU when none available
system.cpu.iq.fu_full::SimdFloatCvt                 0                       # attempts to use FU when none available
system.cpu.iq.fu_full::SimdFloatDiv                 0                       # attempts to use FU when none available
system.cpu.iq.fu_full::SimdFloatMisc                0                       # attempts to use FU when none available
system.cpu.iq.fu_full::SimdFloatMult                0                       # attempts to use FU when none available
system.cpu.iq.fu_full::SimdFloatMultAcc             0                       # attempts to use FU when none available
system.cpu.iq.fu_full::SimdFloatSqrt                0                       # attempts to use FU when none available
system.cpu.iq.fu_full::SimdReduceAdd                0                       # attempts to use FU when none available
system.cpu.iq.fu_full::SimdReduceAlu                0                       # attempts to use FU when none available
system.cpu.iq.fu_full::SimdReduceCmp                0                       # attempts to use FU when none available
system.cpu.iq.fu_full::SimdFloatReduceAdd            0                       # attempts to use FU when none available
system.cpu.iq.fu_full::SimdFloatReduceCmp            0                       # attempts to use FU when none available
system.cpu.iq.fu_full::SimdAes                      0                       # attempts to use FU when none available
system.cpu.iq.fu_full::SimdAesMix                   0                       # attempts to use FU when none available
system.cpu.iq.fu_full::SimdSha1Hash                 0                       # attempts to use FU when none available
system.cpu.iq.fu_full::SimdSha1Hash2                0                       # attempts to use FU when none available
system.cpu.iq.fu_full::SimdSha256Hash               0                       # attempts to use FU when none available
system.cpu.iq.fu_full::SimdSha256Hash2              0                       # attempts to use FU when none available
system.cpu.iq.fu_full::SimdShaSigma2                0                       # attempts to use FU when none available
system.cpu.iq.fu_full::SimdShaSigma3                0                       # attempts to use FU when none available
system.cpu.iq.fu_full::SimdPredAlu                  0                       # attempts to use FU when none available
system.cpu.iq.fu_full::MemRead                      0                       # attempts to use FU when none available
system.cpu.iq.fu_full::MemWrite                     0                       # attempts to use FU when none available
system.cpu.iq.fu_full::FloatMemRead                 0                       # attempts to use FU when none available
system.cpu.iq.fu_full::FloatMemWrite                0                       # attempts to use FU when none available
system.cpu.iq.fu_full::IprAccess                    0                       # attempts to use FU when none available
system.cpu.iq.fu_full::InstPrefetch                 0                       # attempts to use FU when none available
system.cpu.iq.int_alu_accesses                5775023                       # Number of integer alu accesses
system.cpu.iq.int_inst_queue_reads           14868196                       # Number of integer instruction queue reads
system.cpu.iq.int_inst_queue_wakeup_accesses      5756342                       # Number of integer instruction queue wakeup accesses
system.cpu.iq.int_inst_queue_writes           6987564                       # Number of integer instruction queue writes
system.cpu.iq.iqInstsAdded                    6327362                       # Number of instructions added to the IQ (excludes non-spec)
system.cpu.iq.iqInstsIssued                   6004522                       # Number of instructions issued
system.cpu.iq.iqNonSpecInstsAdded                1158                       # Number of non-speculative instructions added to the IQ
system.cpu.iq.iqSquashedInstsExamined          896994                       # Number of squashed instructions iterated over during squash; mainly for profiling
system.cpu.iq.iqSquashedInstsIssued             18043                       # Number of squashed instructions issued
system.cpu.iq.iqSquashedNonSpecRemoved            398                       # Number of squashed non-spec instructions that were removed
system.cpu.iq.iqSquashedOperandsExamined      1332561                       # Number of squashed operands that are examined and possibly removed from graph
system.cpu.iq.issued_per_cycle::samples       3231685                       # Number of insts issued each cycle
system.cpu.iq.issued_per_cycle::mean         1.858016                       # Number of insts issued each cycle
system.cpu.iq.issued_per_cycle::stdev        1.657944                       # Number of insts issued each cycle
system.cpu.iq.issued_per_cycle::underflows            0      0.00%      0.00% # Number of insts issued each cycle
system.cpu.iq.issued_per_cycle::0             1206812     37.34%     37.34% # Number of insts issued each cycle
system.cpu.iq.issued_per_cycle::1              238068      7.37%     44.71% # Number of insts issued each cycle
system.cpu.iq.issued_per_cycle::2              439048     13.59%     58.30% # Number of insts issued each cycle
system.cpu.iq.issued_per_cycle::3              502670     15.55%     73.85% # Number of insts issued each cycle
system.cpu.iq.issued_per_cycle::4              845087     26.15%    100.00% # Number of insts issued each cycle
system.cpu.iq.issued_per_cycle::overflows            0      0.00%    100.00% # Number of insts issued each cycle
system.cpu.iq.issued_per_cycle::min_value            0                       # Number of insts issued each cycle
system.cpu.iq.issued_per_cycle::max_value            4                       # Number of insts issued each cycle
system.cpu.iq.issued_per_cycle::total         3231685                       # Number of insts issued each cycle
system.cpu.iq.rate                           1.769390                       # Inst issue rate
system.cpu.iq.vec_alu_accesses                      0                       # Number of vector alu accesses
system.cpu.iq.vec_inst_queue_reads                  0                       # Number of vector instruction queue reads
system.cpu.iq.vec_inst_queue_wakeup_accesses            0                       # Number of vector instruction queue wakeup accesses
system.cpu.iq.vec_inst_queue_writes                 0                       # Number of vector instruction queue writes
system.cpu.itb.rdAccesses                           0                       # TLB accesses on read requests
system.cpu.itb.rdMisses                             0                       # TLB misses on read requests
system.cpu.itb.wrAccesses                      361283                       # TLB accesses on write requests
system.cpu.itb.wrMisses                           388                       # TLB misses on write requests
system.cpu.memDep0.conflictingLoads             15695                       # Number of conflicting loads.
system.cpu.memDep0.conflictingStores            11188                       # Number of conflicting stores.
system.cpu.memDep0.insertedLoads               841018                       # Number of loads inserted to the mem dependence unit.
system.cpu.memDep0.insertedStores              377430                       # Number of stores inserted to the mem dependence unit.
system.cpu.misc_regfile_reads                 2309960                       # number of misc regfile reads
system.cpu.misc_regfile_writes                    702                       # number of misc regfile writes
system.cpu.numCycles                          3393554                       # number of cpu cycles simulated
system.cpu.numWorkItemsCompleted                    0                       # number of work items this cpu completed
system.cpu.numWorkItemsStarted                      0                       # number of work items this cpu started
system.cpu.process.numSyscalls                     57                       # Number of system calls
system.cpu.rename.BlockCycles                  848056                       # Number of cycles rename is blocking
system.cpu.rename.CommittedMaps               6945790                       # Number of HB maps that are committed
system.cpu.rename.FullRegisterEvents               54                       # Number of times there has been no free registers
system.cpu.rename.IQFullEvents                  51828                       # Number of times rename has blocked due to IQ full
system.cpu.rename.IdleCycles                   480643                       # Number of cycles rename is idle
system.cpu.rename.LQFullEvents                  15159                       # Number of times rename has blocked due to LQ full
system.cpu.rename.ROBFullEvents                  4909                       # Number of times rename has blocked due to ROB full
system.cpu.rename.RenameLookups              16783688                       # Number of register rename lookups that rename has made
system.cpu.rename.RenamedInsts                6472025                       # Number of instructions processed by rename
system.cpu.rename.RenamedOperands             8361171                       # Number of destination operands rename has renamed
system.cpu.rename.RunCycles                   1673336                       # Number of cycles rename is running
system.cpu.rename.SQFullEvents                  77886                       # Number of times rename has blocked due to SQ full
system.cpu.rename.SquashCycles                  24879                       # Number of cycles rename is squashing
system.cpu.rename.UnblockCycles                183917                       # Number of cycles rename is unblocking
system.cpu.rename.UndoneMaps                  1415355                       # Number of HB maps that are undone due to squashing
system.cpu.rename.fp_rename_lookups            331930                       # Number of floating rename lookups
system.cpu.rename.int_rename_lookups         10120841                       # Number of integer rename lookups
system.cpu.rename.serializeStallCycles          20854                       # count of cycles rename stalled for serializing inst
system.cpu.rename.serializingInsts                900                       # count of serializing insts renamed
system.cpu.rename.skidInsts                    221680                       # count of insts added to the skid buffer
system.cpu.rename.tempSerializingInsts            954                       # count of temporary serializing insts renamed
system.cpu.rob.rob_reads                      8404223                       # The number of ROB reads
system.cpu.rob.rob_writes                    12902276                       # The number of ROB writes
system.cpu.timesIdled                            1631                       # Number of times that the entire CPU went into an idle state and unscheduled itself
system.l2bus.snoop_filter.hit_multi_requests           13                       # Number of requests hitting in the snoop filter with multiple (>1) holders of the requested data.
system.l2bus.snoop_filter.hit_multi_snoops            0                       # Number of snoops hitting in the snoop filter with multiple (>1) holders of the requested data.
system.l2bus.snoop_filter.hit_single_requests        18792                       # Number of requests hitting in the snoop filter with a single holder of the requested data.
system.l2bus.snoop_filter.hit_single_snoops          450                       # Number of snoops hitting in the snoop filter with a single holder of the requested data.
system.l2bus.snoop_filter.tot_requests          38864                       # Total number of requests made to the snoop filter.
system.l2bus.snoop_filter.tot_snoops              450                       # Total number of snoops made to the snoop filter.
system.l2cache.prefetcher.num_hwpf_issued          691                       # number of hwpf issued
system.l2cache.prefetcher.pfBufferHit               0                       # number of redundant prefetches already in prefetch queue
system.l2cache.prefetcher.pfIdentified            691                       # number of prefetch candidates identified
system.l2cache.prefetcher.pfInCache                 0                       # number of redundant prefetches already in cache/mshr dropped
system.l2cache.prefetcher.pfRemovedFull             0                       # number of prefetches dropped due to prefetch queue size
system.l2cache.prefetcher.pfSpanPage               97                       # number of prefetches that crossed the page
system.membus.snoop_filter.hit_multi_requests            0                       # Number of requests hitting in the snoop filter with multiple (>1) holders of the requested data.
system.membus.snoop_filter.hit_multi_snoops            0                       # Number of snoops hitting in the snoop filter with multiple (>1) holders of the requested data.
system.membus.snoop_filter.hit_single_requests         9565                       # Number of requests hitting in the snoop filter with a single holder of the requested data.
system.membus.snoop_filter.hit_single_snoops            0                       # Number of snoops hitting in the snoop filter with a single holder of the requested data.
system.membus.snoop_filter.tot_requests         23250                       # Total number of requests made to the snoop filter.
system.membus.snoop_filter.tot_snoops               0                       # Total number of snoops made to the snoop filter.
system.membus.pwrStateResidencyTicks::UNDEFINED   1357421200                       # Cumulative time (in ticks) in various power states
system.membus.trans_dist::ReadResp              12292                       # Transaction distribution
system.membus.trans_dist::WritebackDirty         1360                       # Transaction distribution
system.membus.trans_dist::CleanEvict             8205                       # Transaction distribution
system.membus.trans_dist::ReadExReq              1393                       # Transaction distribution
system.membus.trans_dist::ReadExResp             1393                       # Transaction distribution
system.membus.trans_dist::ReadSharedReq         12292                       # Transaction distribution
system.membus.pkt_count_system.l2cache.mem_side::system.mem_ctrl.port        36935                       # Packet count per connected master and slave (bytes)
system.membus.pkt_count_system.l2cache.mem_side::total        36935                       # Packet count per connected master and slave (bytes)
system.membus.pkt_count::total                  36935                       # Packet count per connected master and slave (bytes)
system.membus.pkt_size_system.l2cache.mem_side::system.mem_ctrl.port       962880                       # Cumulative packet size per connected master and slave (bytes)
system.membus.pkt_size_system.l2cache.mem_side::total       962880                       # Cumulative packet size per connected master and slave (bytes)
system.membus.pkt_size::total                  962880                       # Cumulative packet size per connected master and slave (bytes)
system.membus.snoops                                0                       # Total snoops (count)
system.membus.snoopTraffic                          0                       # Total snoop traffic (bytes)
system.membus.snoop_fanout::samples             13685                       # Request fanout histogram
system.membus.snoop_fanout::mean                    0                       # Request fanout histogram
system.membus.snoop_fanout::stdev                   0                       # Request fanout histogram
system.membus.snoop_fanout::underflows              0      0.00%      0.00% # Request fanout histogram
system.membus.snoop_fanout::0                   13685    100.00%    100.00% # Request fanout histogram
system.membus.snoop_fanout::1                       0      0.00%    100.00% # Request fanout histogram
system.membus.snoop_fanout::overflows               0      0.00%    100.00% # Request fanout histogram
system.membus.snoop_fanout::min_value               0                       # Request fanout histogram
system.membus.snoop_fanout::max_value               0                       # Request fanout histogram
system.membus.snoop_fanout::total               13685                       # Request fanout histogram
system.membus.reqLayer2.occupancy            11502614                       # Layer occupancy (ticks)
system.membus.reqLayer2.utilization               0.8                       # Layer utilization (%)
system.membus.respLayer0.occupancy           29717686                       # Layer occupancy (ticks)
system.membus.respLayer0.utilization              2.2                       # Layer utilization (%)
system.l2bus.pwrStateResidencyTicks::UNDEFINED   1357421200                       # Cumulative time (in ticks) in various power states
system.l2bus.trans_dist::ReadResp               17827                       # Transaction distribution
system.l2bus.trans_dist::WritebackDirty          4265                       # Transaction distribution
system.l2bus.trans_dist::CleanEvict             24180                       # Transaction distribution
system.l2bus.trans_dist::HardPFReq                975                       # Transaction distribution
system.l2bus.trans_dist::ReadExReq               2245                       # Transaction distribution
system.l2bus.trans_dist::ReadExResp              2245                       # Transaction distribution
system.l2bus.trans_dist::ReadSharedReq          17827                       # Transaction distribution
system.l2bus.pkt_count_system.cpu.icache.mem_side::system.l2cache.cpu_side         8438                       # Packet count per connected master and slave (bytes)
system.l2bus.pkt_count_system.cpu.dcache.mem_side::system.l2cache.cpu_side        50493                       # Packet count per connected master and slave (bytes)
system.l2bus.pkt_count::total                   58931                       # Packet count per connected master and slave (bytes)
system.l2bus.pkt_size_system.cpu.icache.mem_side::system.l2cache.cpu_side       185472                       # Cumulative packet size per connected master and slave (bytes)
system.l2bus.pkt_size_system.cpu.dcache.mem_side::system.l2cache.cpu_side      1284736                       # Cumulative packet size per connected master and slave (bytes)
system.l2bus.pkt_size::total                  1470208                       # Cumulative packet size per connected master and slave (bytes)
system.l2bus.snoops                             10633                       # Total snoops (count)
system.l2bus.snoopTraffic                       87360                       # Total snoop traffic (bytes)
system.l2bus.snoop_fanout::samples              30700                       # Request fanout histogram
system.l2bus.snoop_fanout::mean              0.015081                       # Request fanout histogram
system.l2bus.snoop_fanout::stdev             0.121879                       # Request fanout histogram
system.l2bus.snoop_fanout::underflows               0      0.00%      0.00% # Request fanout histogram
system.l2bus.snoop_fanout::0                    30237     98.49%     98.49% # Request fanout histogram
system.l2bus.snoop_fanout::1                      463      1.51%    100.00% # Request fanout histogram
system.l2bus.snoop_fanout::2                        0      0.00%    100.00% # Request fanout histogram
system.l2bus.snoop_fanout::overflows                0      0.00%    100.00% # Request fanout histogram
system.l2bus.snoop_fanout::min_value                0                       # Request fanout histogram
system.l2bus.snoop_fanout::max_value                1                       # Request fanout histogram
system.l2bus.snoop_fanout::total                30700                       # Request fanout histogram
system.l2bus.respLayer1.occupancy            20608797                       # Layer occupancy (ticks)
system.l2bus.respLayer1.utilization               1.5                       # Layer utilization (%)
system.l2bus.reqLayer0.occupancy             19320580                       # Layer occupancy (ticks)
system.l2bus.reqLayer0.utilization                1.4                       # Layer utilization (%)
system.l2bus.respLayer0.occupancy             3479598                       # Layer occupancy (ticks)
system.l2bus.respLayer0.utilization               0.3                       # Layer utilization (%)
system.clk_domain.clock                           400                       # Clock period in ticks
system.clk_domain.voltage_domain.voltage            1                       # Voltage in Volts
system.cpu.pwrStateResidencyTicks::ON      1357421200                       # Cumulative time (in ticks) in various power states
system.cpu.icache.pwrStateResidencyTicks::UNDEFINED   1357421200                       # Cumulative time (in ticks) in various power states
system.cpu.icache.demand_hits::.cpu.inst       357536                       # number of demand (read+write) hits
system.cpu.icache.demand_hits::total           357536                       # number of demand (read+write) hits
system.cpu.icache.overall_hits::.cpu.inst       357536                       # number of overall hits
system.cpu.icache.overall_hits::total          357536                       # number of overall hits
system.cpu.icache.demand_misses::.cpu.inst         3612                       # number of demand (read+write) misses
system.cpu.icache.demand_misses::total           3612                       # number of demand (read+write) misses
system.cpu.icache.overall_misses::.cpu.inst         3612                       # number of overall misses
system.cpu.icache.overall_misses::total          3612                       # number of overall misses
system.cpu.icache.demand_miss_latency::.cpu.inst    178467200                       # number of demand (read+write) miss cycles
system.cpu.icache.demand_miss_latency::total    178467200                       # number of demand (read+write) miss cycles
system.cpu.icache.overall_miss_latency::.cpu.inst    178467200                       # number of overall miss cycles
system.cpu.icache.overall_miss_latency::total    178467200                       # number of overall miss cycles
system.cpu.icache.demand_accesses::.cpu.inst       361148                       # number of demand (read+write) accesses
system.cpu.icache.demand_accesses::total       361148                       # number of demand (read+write) accesses
system.cpu.icache.overall_accesses::.cpu.inst       361148                       # number of overall (read+write) accesses
system.cpu.icache.overall_accesses::total       361148                       # number of overall (read+write) accesses
system.cpu.icache.demand_miss_rate::.cpu.inst     0.010001                       # miss rate for demand accesses
system.cpu.icache.demand_miss_rate::total     0.010001                       # miss rate for demand accesses
system.cpu.icache.overall_miss_rate::.cpu.inst     0.010001                       # miss rate for overall accesses
system.cpu.icache.overall_miss_rate::total     0.010001                       # miss rate for overall accesses
system.cpu.icache.demand_avg_miss_latency::.cpu.inst 49409.523810                       # average overall miss latency
system.cpu.icache.demand_avg_miss_latency::total 49409.523810                       # average overall miss latency
system.cpu.icache.overall_avg_miss_latency::.cpu.inst 49409.523810                       # average overall miss latency
system.cpu.icache.overall_avg_miss_latency::total 49409.523810                       # average overall miss latency
system.cpu.icache.blocked_cycles::no_mshrs           51                       # number of cycles access was blocked
system.cpu.icache.blocked_cycles::no_targets            0                       # number of cycles access was blocked
system.cpu.icache.blocked::no_mshrs                 2                       # number of cycles access was blocked
system.cpu.icache.blocked::no_targets               0                       # number of cycles access was blocked
system.cpu.icache.avg_blocked_cycles::no_mshrs    25.500000                       # average number of cycles each access was blocked
system.cpu.icache.avg_blocked_cycles::no_targets          nan                       # average number of cycles each access was blocked
system.cpu.icache.writebacks::.writebacks            2                       # number of writebacks
system.cpu.icache.writebacks::total                 2                       # number of writebacks
system.cpu.icache.demand_mshr_hits::.cpu.inst          713                       # number of demand (read+write) MSHR hits
system.cpu.icache.demand_mshr_hits::total          713                       # number of demand (read+write) MSHR hits
system.cpu.icache.overall_mshr_hits::.cpu.inst          713                       # number of overall MSHR hits
system.cpu.icache.overall_mshr_hits::total          713                       # number of overall MSHR hits
system.cpu.icache.demand_mshr_misses::.cpu.inst         2899                       # number of demand (read+write) MSHR misses
system.cpu.icache.demand_mshr_misses::total         2899                       # number of demand (read+write) MSHR misses
system.cpu.icache.overall_mshr_misses::.cpu.inst         2899                       # number of overall MSHR misses
system.cpu.icache.overall_mshr_misses::total         2899                       # number of overall MSHR misses
system.cpu.icache.demand_mshr_miss_latency::.cpu.inst    143597200                       # number of demand (read+write) MSHR miss cycles
system.cpu.icache.demand_mshr_miss_latency::total    143597200                       # number of demand (read+write) MSHR miss cycles
system.cpu.icache.overall_mshr_miss_latency::.cpu.inst    143597200                       # number of overall MSHR miss cycles
system.cpu.icache.overall_mshr_miss_latency::total    143597200                       # number of overall MSHR miss cycles
system.cpu.icache.demand_mshr_miss_rate::.cpu.inst     0.008027                       # mshr miss rate for demand accesses
system.cpu.icache.demand_mshr_miss_rate::total     0.008027                       # mshr miss rate for demand accesses
system.cpu.icache.overall_mshr_miss_rate::.cpu.inst     0.008027                       # mshr miss rate for overall accesses
system.cpu.icache.overall_mshr_miss_rate::total     0.008027                       # mshr miss rate for overall accesses
system.cpu.icache.demand_avg_mshr_miss_latency::.cpu.inst 49533.356330                       # average overall mshr miss latency
system.cpu.icache.demand_avg_mshr_miss_latency::total 49533.356330                       # average overall mshr miss latency
system.cpu.icache.overall_avg_mshr_miss_latency::.cpu.inst 49533.356330                       # average overall mshr miss latency
system.cpu.icache.overall_avg_mshr_miss_latency::total 49533.356330                       # average overall mshr miss latency
system.cpu.icache.replacements                   2643                       # number of replacements
system.cpu.icache.ReadReq_hits::.cpu.inst       357536                       # number of ReadReq hits
system.cpu.icache.ReadReq_hits::total          357536                       # number of ReadReq hits
system.cpu.icache.ReadReq_misses::.cpu.inst         3612                       # number of ReadReq misses
system.cpu.icache.ReadReq_misses::total          3612                       # number of ReadReq misses
system.cpu.icache.ReadReq_miss_latency::.cpu.inst    178467200                       # number of ReadReq miss cycles
system.cpu.icache.ReadReq_miss_latency::total    178467200                       # number of ReadReq miss cycles
system.cpu.icache.ReadReq_accesses::.cpu.inst       361148                       # number of ReadReq accesses(hits+misses)
system.cpu.icache.ReadReq_accesses::total       361148                       # number of ReadReq accesses(hits+misses)
system.cpu.icache.ReadReq_miss_rate::.cpu.inst     0.010001                       # miss rate for ReadReq accesses
system.cpu.icache.ReadReq_miss_rate::total     0.010001                       # miss rate for ReadReq accesses
system.cpu.icache.ReadReq_avg_miss_latency::.cpu.inst 49409.523810                       # average ReadReq miss latency
system.cpu.icache.ReadReq_avg_miss_latency::total 49409.523810                       # average ReadReq miss latency
system.cpu.icache.ReadReq_mshr_hits::.cpu.inst          713                       # number of ReadReq MSHR hits
system.cpu.icache.ReadReq_mshr_hits::total          713                       # number of ReadReq MSHR hits
system.cpu.icache.ReadReq_mshr_misses::.cpu.inst         2899                       # number of ReadReq MSHR misses
system.cpu.icache.ReadReq_mshr_misses::total         2899                       # number of ReadReq MSHR misses
system.cpu.icache.ReadReq_mshr_miss_latency::.cpu.inst    143597200                       # number of ReadReq MSHR miss cycles
system.cpu.icache.ReadReq_mshr_miss_latency::total    143597200                       # number of ReadReq MSHR miss cycles
system.cpu.icache.ReadReq_mshr_miss_rate::.cpu.inst     0.008027                       # mshr miss rate for ReadReq accesses
system.cpu.icache.ReadReq_mshr_miss_rate::total     0.008027                       # mshr miss rate for ReadReq accesses
system.cpu.icache.ReadReq_avg_mshr_miss_latency::.cpu.inst 49533.356330                       # average ReadReq mshr miss latency
system.cpu.icache.ReadReq_avg_mshr_miss_latency::total 49533.356330                       # average ReadReq mshr miss latency
system.cpu.icache.prefetcher.pwrStateResidencyTicks::UNDEFINED   1357421200                       # Cumulative time (in ticks) in various power states
system.cpu.icache.tags.pwrStateResidencyTicks::UNDEFINED   1357421200                       # Cumulative time (in ticks) in various power states
system.cpu.icache.tags.tagsinuse           253.974555                       # Cycle average of tags in use
system.cpu.icache.tags.total_refs              313987                       # Total number of references to valid blocks.
system.cpu.icache.tags.sampled_refs              2643                       # Sample count of references to valid blocks.
system.cpu.icache.tags.avg_refs            118.799470                       # Average number of references to valid blocks.
system.cpu.icache.tags.warmup_cycle             66400                       # Cycle when the warmup percentage was hit.
system.cpu.icache.tags.occ_blocks::.cpu.inst   253.974555                       # Average occupied blocks per requestor
system.cpu.icache.tags.occ_percent::.cpu.inst     0.992088                       # Average percentage of cache occupancy
system.cpu.icache.tags.occ_percent::total     0.992088                       # Average percentage of cache occupancy
system.cpu.icache.tags.occ_task_id_blocks::1024          256                       # Occupied blocks per task id
system.cpu.icache.tags.age_task_id_blocks_1024::0           56                       # Occupied blocks per task id
system.cpu.icache.tags.age_task_id_blocks_1024::1           57                       # Occupied blocks per task id
system.cpu.icache.tags.age_task_id_blocks_1024::2          143                       # Occupied blocks per task id
system.cpu.icache.tags.occ_task_id_percent::1024            1                       # Percentage of cache occupancy per task id
system.cpu.icache.tags.tag_accesses            725195                       # Number of tag accesses
system.cpu.icache.tags.data_accesses           725195                       # Number of data accesses
system.cpu.dtb.walker.pwrStateResidencyTicks::UNDEFINED   1357421200                       # Cumulative time (in ticks) in various power states
system.cpu.interrupts.clk_domain.clock           6400                       # Clock period in ticks
system.cpu.itb.walker.pwrStateResidencyTicks::UNDEFINED   1357421200                       # Cumulative time (in ticks) in various power states
system.cpu.dcache.pwrStateResidencyTicks::UNDEFINED   1357421200                       # Cumulative time (in ticks) in various power states
system.cpu.dcache.demand_hits::.cpu.data      1050978                       # number of demand (read+write) hits
system.cpu.dcache.demand_hits::total          1050978                       # number of demand (read+write) hits
system.cpu.dcache.overall_hits::.cpu.data      1050978                       # number of overall hits
system.cpu.dcache.overall_hits::total         1050978                       # number of overall hits
system.cpu.dcache.demand_misses::.cpu.data        34914                       # number of demand (read+write) misses
system.cpu.dcache.demand_misses::total          34914                       # number of demand (read+write) misses
system.cpu.dcache.overall_misses::.cpu.data        34914                       # number of overall misses
system.cpu.dcache.overall_misses::total         34914                       # number of overall misses
system.cpu.dcache.demand_miss_latency::.cpu.data   1688945199                       # number of demand (read+write) miss cycles
system.cpu.dcache.demand_miss_latency::total   1688945199                       # number of demand (read+write) miss cycles
system.cpu.dcache.overall_miss_latency::.cpu.data   1688945199                       # number of overall miss cycles
system.cpu.dcache.overall_miss_latency::total   1688945199                       # number of overall miss cycles
system.cpu.dcache.demand_accesses::.cpu.data      1085892                       # number of demand (read+write) accesses
system.cpu.dcache.demand_accesses::total      1085892                       # number of demand (read+write) accesses
system.cpu.dcache.overall_accesses::.cpu.data      1085892                       # number of overall (read+write) accesses
system.cpu.dcache.overall_accesses::total      1085892                       # number of overall (read+write) accesses
system.cpu.dcache.demand_miss_rate::.cpu.data     0.032152                       # miss rate for demand accesses
system.cpu.dcache.demand_miss_rate::total     0.032152                       # miss rate for demand accesses
system.cpu.dcache.overall_miss_rate::.cpu.data     0.032152                       # miss rate for overall accesses
system.cpu.dcache.overall_miss_rate::total     0.032152                       # miss rate for overall accesses
system.cpu.dcache.demand_avg_miss_latency::.cpu.data 48374.440024                       # average overall miss latency
system.cpu.dcache.demand_avg_miss_latency::total 48374.440024                       # average overall miss latency
system.cpu.dcache.overall_avg_miss_latency::.cpu.data 48374.440024                       # average overall miss latency
system.cpu.dcache.overall_avg_miss_latency::total 48374.440024                       # average overall miss latency
system.cpu.dcache.blocked_cycles::no_mshrs        28703                       # number of cycles access was blocked
system.cpu.dcache.blocked_cycles::no_targets          201                       # number of cycles access was blocked
system.cpu.dcache.blocked::no_mshrs               781                       # number of cycles access was blocked
system.cpu.dcache.blocked::no_targets               2                       # number of cycles access was blocked
system.cpu.dcache.avg_blocked_cycles::no_mshrs    36.751601                       # average number of cycles each access was blocked
system.cpu.dcache.avg_blocked_cycles::no_targets   100.500000                       # average number of cycles each access was blocked
system.cpu.dcache.unused_prefetches              1788                       # number of HardPF blocks evicted w/o reference
system.cpu.dcache.writebacks::.writebacks         2903                       # number of writebacks
system.cpu.dcache.writebacks::total              2903                       # number of writebacks
system.cpu.dcache.demand_mshr_hits::.cpu.data        22146                       # number of demand (read+write) MSHR hits
system.cpu.dcache.demand_mshr_hits::total        22146                       # number of demand (read+write) MSHR hits
system.cpu.dcache.overall_mshr_hits::.cpu.data        22146                       # number of overall MSHR hits
system.cpu.dcache.overall_mshr_hits::total        22146                       # number of overall MSHR hits
system.cpu.dcache.demand_mshr_misses::.cpu.data        12768                       # number of demand (read+write) MSHR misses
system.cpu.dcache.demand_mshr_misses::total        12768                       # number of demand (read+write) MSHR misses
system.cpu.dcache.overall_mshr_misses::.cpu.data        12768                       # number of overall MSHR misses
system.cpu.dcache.overall_mshr_misses::.cpu.dcache.prefetcher         4405                       # number of overall MSHR misses
system.cpu.dcache.overall_mshr_misses::total        17173                       # number of overall MSHR misses
system.cpu.dcache.demand_mshr_miss_latency::.cpu.data    584303599                       # number of demand (read+write) MSHR miss cycles
system.cpu.dcache.demand_mshr_miss_latency::total    584303599                       # number of demand (read+write) MSHR miss cycles
system.cpu.dcache.overall_mshr_miss_latency::.cpu.data    584303599                       # number of overall MSHR miss cycles
system.cpu.dcache.overall_mshr_miss_latency::.cpu.dcache.prefetcher    250263659                       # number of overall MSHR miss cycles
system.cpu.dcache.overall_mshr_miss_latency::total    834567258                       # number of overall MSHR miss cycles
system.cpu.dcache.demand_mshr_miss_rate::.cpu.data     0.011758                       # mshr miss rate for demand accesses
system.cpu.dcache.demand_mshr_miss_rate::total     0.011758                       # mshr miss rate for demand accesses
system.cpu.dcache.overall_mshr_miss_rate::.cpu.data     0.011758                       # mshr miss rate for overall accesses
system.cpu.dcache.overall_mshr_miss_rate::.cpu.dcache.prefetcher          inf                       # mshr miss rate for overall accesses
system.cpu.dcache.overall_mshr_miss_rate::total     0.015815                       # mshr miss rate for overall accesses
system.cpu.dcache.demand_avg_mshr_miss_latency::.cpu.data 45763.126488                       # average overall mshr miss latency
system.cpu.dcache.demand_avg_mshr_miss_latency::total 45763.126488                       # average overall mshr miss latency
system.cpu.dcache.overall_avg_mshr_miss_latency::.cpu.data 45763.126488                       # average overall mshr miss latency
system.cpu.dcache.overall_avg_mshr_miss_latency::.cpu.dcache.prefetcher 56813.543473                       # average overall mshr miss latency
system.cpu.dcache.overall_avg_mshr_miss_latency::total 48597.639201                       # average overall mshr miss latency
system.cpu.dcache.replacements                  16149                       # number of replacements
system.cpu.dcache.ReadReq_hits::.cpu.data       706393                       # number of ReadReq hits
system.cpu.dcache.ReadReq_hits::total          706393                       # number of ReadReq hits
system.cpu.dcache.ReadReq_misses::.cpu.data        32626                       # number of ReadReq misses
system.cpu.dcache.ReadReq_misses::total         32626                       # number of ReadReq misses
system.cpu.dcache.ReadReq_miss_latency::.cpu.data   1578894000                       # number of ReadReq miss cycles
system.cpu.dcache.ReadReq_miss_latency::total   1578894000                       # number of ReadReq miss cycles
system.cpu.dcache.ReadReq_accesses::.cpu.data       739019                       # number of ReadReq accesses(hits+misses)
system.cpu.dcache.ReadReq_accesses::total       739019                       # number of ReadReq accesses(hits+misses)
system.cpu.dcache.ReadReq_miss_rate::.cpu.data     0.044148                       # miss rate for ReadReq accesses
system.cpu.dcache.ReadReq_miss_rate::total     0.044148                       # miss rate for ReadReq accesses
system.cpu.dcache.ReadReq_avg_miss_latency::.cpu.data 48393.735058                       # average ReadReq miss latency
system.cpu.dcache.ReadReq_avg_miss_latency::total 48393.735058                       # average ReadReq miss latency
system.cpu.dcache.ReadReq_mshr_hits::.cpu.data        22102                       # number of ReadReq MSHR hits
system.cpu.dcache.ReadReq_mshr_hits::total        22102                       # number of ReadReq MSHR hits
system.cpu.dcache.ReadReq_mshr_misses::.cpu.data        10524                       # number of ReadReq MSHR misses
system.cpu.dcache.ReadReq_mshr_misses::total        10524                       # number of ReadReq MSHR misses
system.cpu.dcache.ReadReq_mshr_miss_latency::.cpu.data    477739200                       # number of ReadReq MSHR miss cycles
system.cpu.dcache.ReadReq_mshr_miss_latency::total    477739200                       # number of ReadReq MSHR miss cycles
system.cpu.dcache.ReadReq_mshr_miss_rate::.cpu.data     0.014240                       # mshr miss rate for ReadReq accesses
system.cpu.dcache.ReadReq_mshr_miss_rate::total     0.014240                       # mshr miss rate for ReadReq accesses
system.cpu.dcache.ReadReq_avg_mshr_miss_latency::.cpu.data 45395.210946                       # average ReadReq mshr miss latency
system.cpu.dcache.ReadReq_avg_mshr_miss_latency::total 45395.210946                       # average ReadReq mshr miss latency
system.cpu.dcache.WriteReq_hits::.cpu.data       344585                       # number of WriteReq hits
system.cpu.dcache.WriteReq_hits::total         344585                       # number of WriteReq hits
system.cpu.dcache.WriteReq_misses::.cpu.data         2288                       # number of WriteReq misses
system.cpu.dcache.WriteReq_misses::total         2288                       # number of WriteReq misses
system.cpu.dcache.WriteReq_miss_latency::.cpu.data    110051199                       # number of WriteReq miss cycles
system.cpu.dcache.WriteReq_miss_latency::total    110051199                       # number of WriteReq miss cycles
system.cpu.dcache.WriteReq_accesses::.cpu.data       346873                       # number of WriteReq accesses(hits+misses)
system.cpu.dcache.WriteReq_accesses::total       346873                       # number of WriteReq accesses(hits+misses)
system.cpu.dcache.WriteReq_miss_rate::.cpu.data     0.006596                       # miss rate for WriteReq accesses
system.cpu.dcache.WriteReq_miss_rate::total     0.006596                       # miss rate for WriteReq accesses
system.cpu.dcache.WriteReq_avg_miss_latency::.cpu.data 48099.300262                       # average WriteReq miss latency
system.cpu.dcache.WriteReq_avg_miss_latency::total 48099.300262                       # average WriteReq miss latency
system.cpu.dcache.WriteReq_mshr_hits::.cpu.data           44                       # number of WriteReq MSHR hits
system.cpu.dcache.WriteReq_mshr_hits::total           44                       # number of WriteReq MSHR hits
system.cpu.dcache.WriteReq_mshr_misses::.cpu.data         2244                       # number of WriteReq MSHR misses
system.cpu.dcache.WriteReq_mshr_misses::total         2244                       # number of WriteReq MSHR misses
[...]
system.l2cache.demand_mshr_misses::.cpu.data          117                       # number of demand (read+write) MSHR misses
system.l2cache.demand_mshr_misses::.cpu.dcache.prefetcher           42                       # number of demand (read+write) MSHR misses
system.l2cache.demand_mshr_misses::total          405                       # number of demand (read+write) MSHR misses
system.l2cache.overall_mshr_misses::.cpu.inst          246                       # number of overall MSHR misses
system.l2cache.overall_mshr_misses::.cpu.data          117                       # number of overall MSHR misses
system.l2cache.overall_mshr_misses::.cpu.dcache.prefetcher           42                       # number of overall MSHR misses
system.l2cache.overall_mshr_misses::total          405                       # number of overall MSHR misses
system.l2cache.demand_mshr_miss_latency::.cpu.inst     14779600                       # number of demand (read+write) MSHR miss cycles
system.l2cache.demand_mshr_miss_latency::.cpu.data      6950400                       # number of demand (read+write) MSHR miss cycles
system.l2cache.demand_mshr_miss_latency::.cpu.dcache.prefetcher      2486355                       # number of demand (read+write) MSHR miss cycles
system.l2cache.demand_mshr_miss_latency::total     24216355                       # number of demand (read+write) MSHR miss cycles
system.l2cache.overall_mshr_miss_latency::.cpu.inst     14779600                       # number of overall MSHR miss cycles
system.l2cache.overall_mshr_miss_latency::.cpu.data      6950400                       # number of overall MSHR miss cycles
system.l2cache.overall_mshr_miss_latency::.cpu.dcache.prefetcher      2486355                       # number of overall MSHR miss cycles
system.l2cache.overall_mshr_miss_latency::total     24216355                       # number of overall MSHR miss cycles
system.l2cache.demand_mshr_miss_rate::.cpu.inst     0.540659                       # mshr miss rate for demand accesses
system.l2cache.demand_mshr_miss_rate::.cpu.data     0.475610                       # mshr miss rate for demand accesses
system.l2cache.demand_mshr_miss_rate::.cpu.dcache.prefetcher     0.913043                       # mshr miss rate for demand accesses
system.l2cache.demand_mshr_miss_rate::total     0.542169                       # mshr miss rate for demand accesses
system.l2cache.overall_mshr_miss_rate::.cpu.inst     0.540659                       # mshr miss rate for overall accesses
system.l2cache.overall_mshr_miss_rate::.cpu.data     0.475610                       # mshr miss rate for overall accesses
system.l2cache.overall_mshr_miss_rate::.cpu.dcache.prefetcher     0.913043                       # mshr miss rate for overall accesses
system.l2cache.overall_mshr_miss_rate::total     0.542169                       # mshr miss rate for overall accesses
system.l2cache.demand_avg_mshr_miss_latency::.cpu.inst 60079.674797                       # average overall mshr miss latency
system.l2cache.demand_avg_mshr_miss_latency::.cpu.data 59405.128205                       # average overall mshr miss latency
system.l2cache.demand_avg_mshr_miss_latency::.cpu.dcache.prefetcher 59198.928571                       # average overall mshr miss latency
system.l2cache.demand_avg_mshr_miss_latency::total 59793.469136                       # average overall mshr miss latency
system.l2cache.overall_avg_mshr_miss_latency::.cpu.inst 60079.674797                       # average overall mshr miss latency
system.l2cache.overall_avg_mshr_miss_latency::.cpu.data 59405.128205                       # average overall mshr miss latency
system.l2cache.overall_avg_mshr_miss_latency::.cpu.dcache.prefetcher 59198.928571                       # average overall mshr miss latency
system.l2cache.overall_avg_mshr_miss_latency::total 59793.469136                       # average overall mshr miss latency
system.l2cache.replacements                       414                       # number of replacements
system.l2cache.WritebackDirty_hits::.writebacks          121                       # number of WritebackDirty hits
system.l2cache.WritebackDirty_hits::total          121                       # number of WritebackDirty hits
system.l2cache.WritebackDirty_accesses::.writebacks          121                       # number of WritebackDirty accesses(hits+misses)
system.l2cache.WritebackDirty_accesses::total          121                       # number of WritebackDirty accesses(hits+misses)
system.l2cache.CleanEvict_mshr_misses::.writebacks            9                       # number of CleanEvict MSHR misses
system.l2cache.CleanEvict_mshr_misses::total            9                       # number of CleanEvict MSHR misses
system.l2cache.CleanEvict_mshr_miss_rate::.writebacks          inf                       # mshr miss rate for CleanEvict accesses
system.l2cache.CleanEvict_mshr_miss_rate::total          inf                       # mshr miss rate for CleanEvict accesses
system.l2cache.ReadExReq_hits::.cpu.data            7                       # number of ReadExReq hits
system.l2cache.ReadExReq_hits::total                7                       # number of ReadExReq hits
system.l2cache.ReadExReq_misses::.cpu.data            7                       # number of ReadExReq misses
system.l2cache.ReadExReq_misses::total              7                       # number of ReadExReq misses
system.l2cache.ReadExReq_miss_latency::.cpu.data       441200                       # number of ReadExReq miss cycles
system.l2cache.ReadExReq_miss_latency::total       441200                       # number of ReadExReq miss cycles
system.l2cache.ReadExReq_accesses::.cpu.data           14                       # number of ReadExReq accesses(hits+misses)
system.l2cache.ReadExReq_accesses::total           14                       # number of ReadExReq accesses(hits+misses)
system.l2cache.ReadExReq_miss_rate::.cpu.data     0.500000                       # miss rate for ReadExReq accesses
system.l2cache.ReadExReq_miss_rate::total     0.500000                       # miss rate for ReadExReq accesses
system.l2cache.ReadExReq_avg_miss_latency::.cpu.data 63028.571429                       # average ReadExReq miss latency
system.l2cache.ReadExReq_avg_miss_latency::total 63028.571429                       # average ReadExReq miss latency
system.l2cache.ReadExReq_mshr_misses::.cpu.data            7                       # number of ReadExReq MSHR misses
system.l2cache.ReadExReq_mshr_misses::total            7                       # number of ReadExReq MSHR misses
system.l2cache.ReadExReq_mshr_miss_latency::.cpu.data       385200                       # number of ReadExReq MSHR miss cycles
system.l2cache.ReadExReq_mshr_miss_latency::total       385200                       # number of ReadExReq MSHR miss cycles
system.l2cache.ReadExReq_mshr_miss_rate::.cpu.data     0.500000                       # mshr miss rate for ReadExReq accesses
system.l2cache.ReadExReq_mshr_miss_rate::total     0.500000                       # mshr miss rate for ReadExReq accesses
system.l2cache.ReadExReq_avg_mshr_miss_latency::.cpu.data 55028.571429                       # average ReadExReq mshr miss latency
system.l2cache.ReadExReq_avg_mshr_miss_latency::total 55028.571429                       # average ReadExReq mshr miss latency
system.l2cache.ReadSharedReq_hits::.cpu.inst          209                       # number of ReadSharedReq hits
system.l2cache.ReadSharedReq_hits::.cpu.data          122                       # number of ReadSharedReq hits
system.l2cache.ReadSharedReq_hits::.cpu.dcache.prefetcher            4                       # number of ReadSharedReq hits
system.l2cache.ReadSharedReq_hits::total          335                       # number of ReadSharedReq hits
system.l2cache.ReadSharedReq_misses::.cpu.inst          246                       # number of ReadSharedReq misses
system.l2cache.ReadSharedReq_misses::.cpu.data          110                       # number of ReadSharedReq misses
system.l2cache.ReadSharedReq_misses::.cpu.dcache.prefetcher           42                       # number of ReadSharedReq misses
system.l2cache.ReadSharedReq_misses::total          398                       # number of ReadSharedReq misses
system.l2cache.ReadSharedReq_miss_latency::.cpu.inst     16747600                       # number of ReadSharedReq miss cycles
system.l2cache.ReadSharedReq_miss_latency::.cpu.data      7445200                       # number of ReadSharedReq miss cycles
system.l2cache.ReadSharedReq_miss_latency::.cpu.dcache.prefetcher      2822355                       # number of ReadSharedReq miss cycles
system.l2cache.ReadSharedReq_miss_latency::total     27015155                       # number of ReadSharedReq miss cycles
system.l2cache.ReadSharedReq_accesses::.cpu.inst          455                       # number of ReadSharedReq accesses(hits+misses)
system.l2cache.ReadSharedReq_accesses::.cpu.data          232                       # number of ReadSharedReq accesses(hits+misses)
system.l2cache.ReadSharedReq_accesses::.cpu.dcache.prefetcher           46                       # number of ReadSharedReq accesses(hits+misses)
system.l2cache.ReadSharedReq_accesses::total          733                       # number of ReadSharedReq accesses(hits+misses)
system.l2cache.ReadSharedReq_miss_rate::.cpu.inst     0.540659                       # miss rate for ReadSharedReq accesses
system.l2cache.ReadSharedReq_miss_rate::.cpu.data     0.474138                       # miss rate for ReadSharedReq accesses
system.l2cache.ReadSharedReq_miss_rate::.cpu.dcache.prefetcher     0.913043                       # miss rate for ReadSharedReq accesses
system.l2cache.ReadSharedReq_miss_rate::total     0.542974                       # miss rate for ReadSharedReq accesses
system.l2cache.ReadSharedReq_avg_miss_latency::.cpu.inst 68079.674797                       # average ReadSharedReq miss latency
system.l2cache.ReadSharedReq_avg_miss_latency::.cpu.data 67683.636364                       # average ReadSharedReq miss latency
system.l2cache.ReadSharedReq_avg_miss_latency::.cpu.dcache.prefetcher 67198.928571                       # average ReadSharedReq miss latency
system.l2cache.ReadSharedReq_avg_miss_latency::total 67877.273869                       # average ReadSharedReq miss latency
system.l2cache.ReadSharedReq_mshr_misses::.cpu.inst          246                       # number of ReadSharedReq MSHR misses
system.l2cache.ReadSharedReq_mshr_misses::.cpu.data          110                       # number of ReadSharedReq MSHR misses
system.l2cache.ReadSharedReq_mshr_misses::.cpu.dcache.prefetcher           42                       # number of ReadSharedReq MSHR misses
system.l2cache.ReadSharedReq_mshr_misses::total          398                       # number of ReadSharedReq MSHR misses
system.l2cache.ReadSharedReq_mshr_miss_latency::.cpu.inst     14779600                       # number of ReadSharedReq MSHR miss cycles
system.l2cache.ReadSharedReq_mshr_miss_latency::.cpu.data      6565200                       # number of ReadSharedReq MSHR miss cycles
system.l2cache.ReadSharedReq_mshr_miss_latency::.cpu.dcache.prefetcher      2486355                       # number of ReadSharedReq MSHR miss cycles
system.l2cache.ReadSharedReq_mshr_miss_latency::total     23831155                       # number of ReadSharedReq MSHR miss cycles
system.l2cache.ReadSharedReq_mshr_miss_rate::.cpu.inst     0.540659                       # mshr miss rate for ReadSharedReq accesses
system.l2cache.ReadSharedReq_mshr_miss_rate::.cpu.data     0.474138                       # mshr miss rate for ReadSharedReq accesses
system.l2cache.ReadSharedReq_mshr_miss_rate::.cpu.dcache.prefetcher     0.913043                       # mshr miss rate for ReadSharedReq accesses
system.l2cache.ReadSharedReq_mshr_miss_rate::total     0.542974                       # mshr miss rate for ReadSharedReq accesses
system.l2cache.ReadSharedReq_avg_mshr_miss_latency::.cpu.inst 60079.674797                       # average ReadSharedReq mshr miss latency
system.l2cache.ReadSharedReq_avg_mshr_miss_latency::.cpu.data 59683.636364                       # average ReadSharedReq mshr miss latency
system.l2cache.ReadSharedReq_avg_mshr_miss_latency::.cpu.dcache.prefetcher 59198.928571                       # average ReadSharedReq mshr miss latency
system.l2cache.ReadSharedReq_avg_mshr_miss_latency::total 59877.273869                       # average ReadSharedReq mshr miss latency
system.l2cache.prefetcher.pwrStateResidencyTicks::UNDEFINED     30400800                       # Cumulative time (in ticks) in various power states
system.l2cache.tags.pwrStateResidencyTicks::UNDEFINED     30400800                       # Cumulative time (in ticks) in various power states
system.l2cache.tags.tagsinuse                    4096                       # Cycle average of tags in use
system.l2cache.tags.total_refs                  14221                       # Total number of references to valid blocks.
system.l2cache.tags.sampled_refs                 4510                       # Sample count of references to valid blocks.
system.l2cache.tags.avg_refs                 3.153215                       # Average number of references to valid blocks.
system.l2cache.tags.warmup_cycle                    0                       # Cycle when the warmup percentage was hit.
system.l2cache.tags.occ_blocks::.writebacks    43.565906                       # Average occupied blocks per requestor
system.l2cache.tags.occ_blocks::.cpu.inst  1127.904454                       # Average occupied blocks per requestor
system.l2cache.tags.occ_blocks::.cpu.data  1833.563654                       # Average occupied blocks per requestor
system.l2cache.tags.occ_blocks::.cpu.dcache.prefetcher   950.507866                       # Average occupied blocks per requestor
system.l2cache.tags.occ_blocks::.l2cache.prefetcher   140.458119                       # Average occupied blocks per requestor
system.l2cache.tags.occ_percent::.writebacks     0.010636                       # Average percentage of cache occupancy
system.l2cache.tags.occ_percent::.cpu.inst     0.275367                       # Average percentage of cache occupancy
system.l2cache.tags.occ_percent::.cpu.data     0.447647                       # Average percentage of cache occupancy
system.l2cache.tags.occ_percent::.cpu.dcache.prefetcher     0.232058                       # Average percentage of cache occupancy
system.l2cache.tags.occ_percent::.l2cache.prefetcher     0.034292                       # Average percentage of cache occupancy
system.l2cache.tags.occ_percent::total              1                       # Average percentage of cache occupancy
system.l2cache.tags.occ_task_id_blocks::1022         1035                       # Occupied blocks per task id
system.l2cache.tags.occ_task_id_blocks::1024         3061                       # Occupied blocks per task id
system.l2cache.tags.age_task_id_blocks_1022::0            9                       # Occupied blocks per task id
system.l2cache.tags.age_task_id_blocks_1022::1           61                       # Occupied blocks per task id
system.l2cache.tags.age_task_id_blocks_1022::2          920                       # Occupied blocks per task id
system.l2cache.tags.age_task_id_blocks_1022::3           45                       # Occupied blocks per task id
system.l2cache.tags.age_task_id_blocks_1024::0          180                       # Occupied blocks per task id
system.l2cache.tags.age_task_id_blocks_1024::1          379                       # Occupied blocks per task id
system.l2cache.tags.age_task_id_blocks_1024::2         2299                       # Occupied blocks per task id
system.l2cache.tags.age_task_id_blocks_1024::3          203                       # Occupied blocks per task id
system.l2cache.tags.occ_task_id_percent::1022     0.252686                       # Percentage of cache occupancy per task id
system.l2cache.tags.occ_task_id_percent::1024     0.747314                       # Percentage of cache occupancy per task id
system.l2cache.tags.tag_accesses                12358                       # Number of tag accesses
system.l2cache.tags.data_accesses               12358                       # Number of data accesses
system.mem_ctrl.pwrStateResidencyTicks::UNDEFINED     30400800                       # Cumulative time (in ticks) in various power states
system.mem_ctrl.bytes_read::.cpu.inst           15744                       # Number of bytes read from this memory
system.mem_ctrl.bytes_read::.cpu.data            7488                       # Number of bytes read from this memory
system.mem_ctrl.bytes_read::.cpu.dcache.prefetcher         2688                       # Number of bytes read from this memory
system.mem_ctrl.bytes_read::total               25920                       # Number of bytes read from this memory
system.mem_ctrl.bytes_inst_read::.cpu.inst        15744                       # Number of instructions bytes read from this memory
system.mem_ctrl.bytes_inst_read::total          15744                       # Number of instructions bytes read from this memory
system.mem_ctrl.bytes_written::.writebacks         1856                       # Number of bytes written to this memory
system.mem_ctrl.bytes_written::total             1856                       # Number of bytes written to this memory
system.mem_ctrl.num_reads::.cpu.inst              246                       # Number of read requests responded to by this memory
system.mem_ctrl.num_reads::.cpu.data              117                       # Number of read requests responded to by this memory
system.mem_ctrl.num_reads::.cpu.dcache.prefetcher           42                       # Number of read requests responded to by this memory
system.mem_ctrl.num_reads::total                  405                       # Number of read requests responded to by this memory
system.mem_ctrl.num_writes::.writebacks            29                       # Number of write requests responded to by this memory
system.mem_ctrl.num_writes::total                  29                       # Number of write requests responded to by this memory
system.mem_ctrl.bw_read::.cpu.inst          517881108                       # Total read bandwidth from this memory (bytes/s)
system.mem_ctrl.bw_read::.cpu.data          246309308                       # Total read bandwidth from this memory (bytes/s)
system.mem_ctrl.bw_read::.cpu.dcache.prefetcher     88418726                       # Total read bandwidth from this memory (bytes/s)
system.mem_ctrl.bw_read::total              852609142                       # Total read bandwidth from this memory (bytes/s)
system.mem_ctrl.bw_inst_read::.cpu.inst     517881108                       # Instruction read bandwidth from this memory (bytes/s)
system.mem_ctrl.bw_inst_read::total         517881108                       # Instruction read bandwidth from this memory (bytes/s)
system.mem_ctrl.bw_write::.writebacks        61051025                       # Write bandwidth from this memory (bytes/s)
system.mem_ctrl.bw_write::total              61051025                       # Write bandwidth from this memory (bytes/s)
system.mem_ctrl.bw_total::.writebacks        61051025                       # Total bandwidth to/from this memory (bytes/s)
system.mem_ctrl.bw_total::.cpu.inst         517881108                       # Total bandwidth to/from this memory (bytes/s)
system.mem_ctrl.bw_total::.cpu.data         246309308                       # Total bandwidth to/from this memory (bytes/s)
system.mem_ctrl.bw_total::.cpu.dcache.prefetcher     88418726                       # Total bandwidth to/from this memory (bytes/s)
system.mem_ctrl.bw_total::total             913660167                       # Total bandwidth to/from this memory (bytes/s)

---------- End Simulation Statistics   ----------
