
---------- Begin Simulation Statistics ----------
final_tick                                 1284602400                       # Number of ticks from beginning of simulation (restored from checkpoints and never reset)
host_inst_rate                                 186194                       # Simulator instruction rate (inst/s)
host_mem_usage                                4407856                       # Number of bytes of host memory used
host_op_rate                                   330928                       # Simulator op (including micro ops) rate (op/s)
host_seconds                                    14.16                       # Real time elapsed on the host
host_tick_rate                               90717158                       # Simulator tick rate (ticks/s)
sim_freq                                 1000000000000                       # Frequency of simulated ticks
sim_insts                                     2636584                       # Number of instructions simulated
sim_ops                                       4686103                       # Number of ops (including micro ops) simulated
sim_seconds                                  0.001285                       # Number of seconds simulated
sim_ticks                                  1284602400                       # Number of ticks simulated
system.cpu.branchPred.BTBCorrect                    0                       # Number of correct BTB predictions (this stat may not work properly.
system.cpu.branchPred.BTBHitPct              0.000000                       # BTB Hit Percentage
system.cpu.branchPred.BTBHits                       0                       # Number of BTB hits
system.cpu.branchPred.BTBLookups               542628                       # Number of BTB lookups
system.cpu.branchPred.RASInCorrect                 11                       # Number of incorrect RAS predictions.
system.cpu.branchPred.condIncorrect             25266                       # Number of conditional branches incorrect
system.cpu.branchPred.condPredicted            568584                       # Number of conditional branches predicted
system.cpu.branchPred.indirectHits             297571                       # Number of indirect target hits.
system.cpu.branchPred.indirectLookups          542628                       # Number of indirect predictor lookups.
system.cpu.branchPred.indirectMisses           245057                       # Number of indirect misses.
system.cpu.branchPred.lookups                  612811                       # Number of BP lookups
system.cpu.branchPred.usedRAS                   20427                       # Number of times the RAS was used to get a target.
system.cpu.branchPredindirectMispredicted        12258                       # Number of mispredicted indirect branches.
system.cpu.cc_regfile_reads                   3005318                       # number of cc regfile reads
system.cpu.cc_regfile_writes                  2307943                       # number of cc regfile writes
system.cpu.commit.amos                              0                       # Number of atomic instructions committed
system.cpu.commit.branchMispredicts             25357                       # The number of times a branch was mispredicted
system.cpu.commit.branches                     461981                       # Number of branches committed
system.cpu.commit.bw_lim_events                765167                       # number cycles where commit BW limit reached
system.cpu.commit.commitNonSpecStalls             743                       # The number of times commit has been forced to stall to communicate backwards
system.cpu.commit.commitSquashedInsts          925407                       # The number of squashed insts skipped by commit
system.cpu.commit.committedInsts              2636584                       # Number of instructions committed
system.cpu.commit.committedOps                4686103                       # Number of ops (including micro ops) committed
system.cpu.commit.committed_per_cycle::samples      2796262                       # Number of insts commited each cycle
system.cpu.commit.committed_per_cycle::mean     1.675845                       # Number of insts commited each cycle
system.cpu.commit.committed_per_cycle::stdev     1.718309                       # Number of insts commited each cycle
system.cpu.commit.committed_per_cycle::underflows            0      0.00%      0.00% # Number of insts commited each cycle
system.cpu.commit.committed_per_cycle::0      1229179     43.96%     43.96% # Number of insts commited each cycle
system.cpu.commit.committed_per_cycle::1       275516      9.85%     53.81% # Number of insts commited each cycle
system.cpu.commit.committed_per_cycle::2       229281      8.20%     62.01% # Number of insts commited each cycle
system.cpu.commit.committed_per_cycle::3       297119     10.63%     72.64% # Number of insts commited each cycle
system.cpu.commit.committed_per_cycle::4       765167     27.36%    100.00% # Number of insts commited each cycle
system.cpu.commit.committed_per_cycle::overflows            0      0.00%    100.00% # Number of insts commited each cycle
system.cpu.commit.committed_per_cycle::min_value            0                       # Number of insts commited each cycle
system.cpu.commit.committed_per_cycle::max_value            4                       # Number of insts commited each cycle
system.cpu.commit.committed_per_cycle::total      2796262                       # Number of insts commited each cycle
system.cpu.commit.fp_insts                     111027                       # Number of committed floating point instructions.
system.cpu.commit.function_calls                18326                       # Number of function calls committed.
system.cpu.commit.int_insts                   4599436                       # Number of committed integer instructions.
system.cpu.commit.loads                        621981                       # Number of loads committed
system.cpu.commit.membars                           1                       # Number of memory barriers committed
system.cpu.commit.op_class_0::No_OpClass        24517      0.52%      0.52% # Class of committed instruction
system.cpu.commit.op_class_0::IntAlu          3667027     78.25%     78.78% # Class of committed instruction
system.cpu.commit.op_class_0::IntMult            7563      0.16%     78.94% # Class of committed instruction
system.cpu.commit.op_class_0::IntDiv            38340      0.82%     79.76% # Class of committed instruction
system.cpu.commit.op_class_0::FloatAdd           4387      0.09%     79.85% # Class of committed instruction
system.cpu.commit.op_class_0::FloatCmp              0      0.00%     79.85% # Class of committed instruction
system.cpu.commit.op_class_0::FloatCvt           1216      0.03%     79.88% # Class of committed instruction
system.cpu.commit.op_class_0::FloatMult             0      0.00%     79.88% # Class of committed instruction
system.cpu.commit.op_class_0::FloatMultAcc            0      0.00%     79.88% # Class of committed instruction
system.cpu.commit.op_class_0::FloatDiv              0      0.00%     79.88% # Class of committed instruction
system.cpu.commit.op_class_0::FloatMisc             0      0.00%     79.88% # Class of committed instruction
system.cpu.commit.op_class_0::FloatSqrt             0      0.00%     79.88% # Class of committed instruction
system.cpu.commit.op_class_0::SimdAdd            6238      0.13%     80.01% # Class of committed instruction
system.cpu.commit.op_class_0::SimdAddAcc            0      0.00%     80.01% # Class of committed instruction
system.cpu.commit.op_class_0::SimdAlu           17393      0.37%     80.38% # Class of committed instruction
system.cpu.commit.op_class_0::SimdCmp               0      0.00%     80.38% # Class of committed instruction
system.cpu.commit.op_class_0::SimdCvt           18312      0.39%     80.77% # Class of committed instruction
system.cpu.commit.op_class_0::SimdMisc          20372      0.43%     81.21% # Class of committed instruction
system.cpu.commit.op_class_0::SimdMult              0      0.00%     81.21% # Class of committed instruction
system.cpu.commit.op_class_0::SimdMultAcc            0      0.00%     81.21% # Class of committed instruction
system.cpu.commit.op_class_0::SimdShift          1184      0.03%     81.23% # Class of committed instruction
system.cpu.commit.op_class_0::SimdShiftAcc            0      0.00%     81.23% # Class of committed instruction
system.cpu.commit.op_class_0::SimdDiv               0      0.00%     81.23% # Class of committed instruction
system.cpu.commit.op_class_0::SimdSqrt              0      0.00%     81.23% # Class of committed instruction
system.cpu.commit.op_class_0::SimdFloatAdd            0      0.00%     81.23% # Class of committed instruction
system.cpu.commit.op_class_0::SimdFloatAlu            0      0.00%     81.23% # Class of committed instruction
system.cpu.commit.op_class_0::SimdFloatCmp            0      0.00%     81.23% # Class of committed instruction
system.cpu.commit.op_class_0::SimdFloatCvt            0      0.00%     81.23% # Class of committed instruction
system.cpu.commit.op_class_0::SimdFloatDiv            0      0.00%     81.23% # Class of committed instruction
system.cpu.commit.op_class_0::SimdFloatMisc            0      0.00%     81.23% # Class of committed instruction
system.cpu.commit.op_class_0::SimdFloatMult            0      0.00%     81.23% # Class of committed instruction
system.cpu.commit.op_class_0::SimdFloatMultAcc            0      0.00%     81.23% # Class of committed instruction
system.cpu.commit.op_class_0::SimdFloatSqrt            0      0.00%     81.23% # Class of committed instruction
system.cpu.commit.op_class_0::SimdReduceAdd            0      0.00%     81.23% # Class of committed instruction
system.cpu.commit.op_class_0::SimdReduceAlu            0      0.00%     81.23% # Class of committed instruction
system.cpu.commit.op_class_0::SimdReduceCmp            0      0.00%     81.23% # Class of committed instruction
system.cpu.commit.op_class_0::SimdFloatReduceAdd            0      0.00%     81.23% # Class of committed instruction
system.cpu.commit.op_class_0::SimdFloatReduceCmp            0      0.00%     81.23% # Class of committed instruction
system.cpu.commit.op_class_0::SimdAes               0      0.00%     81.23% # Class of committed instruction
system.cpu.commit.op_class_0::SimdAesMix            0      0.00%     81.23% # Class of committed instruction
system.cpu.commit.op_class_0::SimdSha1Hash            0      0.00%     81.23% # Class of committed instruction
system.cpu.commit.op_class_0::SimdSha1Hash2            0      0.00%     81.23% # Class of committed instruction
system.cpu.commit.op_class_0::SimdSha256Hash            0      0.00%     81.23% # Class of committed instruction
system.cpu.commit.op_class_0::SimdSha256Hash2            0      0.00%     81.23% # Class of committed instruction
system.cpu.commit.op_class_0::SimdShaSigma2            0      0.00%     81.23% # Class of committed instruction
system.cpu.commit.op_class_0::SimdShaSigma3            0      0.00%     81.23% # Class of committed instruction
system.cpu.commit.op_class_0::SimdPredAlu            0      0.00%     81.23% # Class of committed instruction
system.cpu.commit.op_class_0::MemRead          598663     12.78%     94.01% # Class of committed instruction
system.cpu.commit.op_class_0::MemWrite         244438      5.22%     99.22% # Class of committed instruction
system.cpu.commit.op_class_0::FloatMemRead        23318      0.50%     99.72% # Class of committed instruction
system.cpu.commit.op_class_0::FloatMemWrite        13135      0.28%    100.00% # Class of committed instruction
system.cpu.commit.op_class_0::IprAccess             0      0.00%    100.00% # Class of committed instruction
system.cpu.commit.op_class_0::InstPrefetch            0      0.00%    100.00% # Class of committed instruction
system.cpu.commit.op_class_0::total           4686103                       # Class of committed instruction
system.cpu.commit.refs                         879554                       # Number of memory references committed
system.cpu.commit.swp_count                         0                       # Number of s/w prefetches committed
system.cpu.commit.vec_insts                         0                       # Number of committed Vector instructions.
system.cpu.committedInsts                     2636584                       # Number of Instructions Simulated
system.cpu.committedOps                       4686103                       # Number of Ops (including micro ops) Simulated
system.cpu.cpi                               1.218056                       # CPI: Cycles Per Instruction
system.cpu.cpi_total                         1.218056                       # CPI: Total CPI of All Threads
system.cpu.dcache.prefetcher.num_hwpf_issued         8221                       # number of hwpf issued
system.cpu.dcache.prefetcher.pfBufferHit        33027                       # number of redundant prefetches already in prefetch queue
system.cpu.dcache.prefetcher.pfIdentified        48441                       # number of prefetch candidates identified
system.cpu.dcache.prefetcher.pfInCache              0                       # number of redundant prefetches already in cache/mshr dropped
system.cpu.dcache.prefetcher.pfRemovedFull            0                       # number of prefetches dropped due to prefetch queue size
system.cpu.dcache.prefetcher.pfSpanPage          4399                       # number of prefetches that crossed the page
system.cpu.decode.BlockedCycles               1040195                       # Number of cycles decode is blocked
system.cpu.decode.DecodedInsts                5835351                       # Number of instructions handled by decode
system.cpu.decode.IdleCycles                   425636                       # Number of cycles decode is idle
system.cpu.decode.RunCycles                   1465392                       # Number of cycles decode is running
system.cpu.decode.SquashCycles                  25433                       # Number of cycles decode is squashing
system.cpu.decode.UnblockCycles                 90878                       # Number of cycles decode is unblocking
system.cpu.dtb.rdAccesses                      709831                       # TLB accesses on read requests
system.cpu.dtb.rdMisses                          2057                       # TLB misses on read requests
system.cpu.dtb.wrAccesses                      277791                       # TLB accesses on write requests
system.cpu.dtb.wrMisses                           160                       # TLB misses on write requests
system.cpu.fetch.Branches                      612811                       # Number of branches that fetch encountered
system.cpu.fetch.CacheLines                    341538                       # Number of cache lines fetched
system.cpu.fetch.Cycles                       2564118                       # Number of cycles fetch has run and was not squashing or blocked
system.cpu.fetch.IcacheSquashes                  4885                       # Number of outstanding Icache misses that were squashed
system.cpu.fetch.IcacheWaitRetryStallCycles           17                       # Number of stall cycles due to full MSHR
system.cpu.fetch.Insts                        3432605                       # Number of instructions fetch has processed
system.cpu.fetch.MiscStallCycles                  100                       # Number of cycles fetch has spent waiting on interrupts, or bad addresses, or out of MSHRs
system.cpu.fetch.PendingQuiesceStallCycles            8                       # Number of stall cycles due to pending quiesce instructions
system.cpu.fetch.PendingTrapStallCycles           611                       # Number of stall cycles due to pending traps
system.cpu.fetch.SquashCycles                   50866                       # Number of cycles fetch has spent squashing
system.cpu.fetch.branchRate                  0.190817                       # Number of branch fetches per cycle
system.cpu.fetch.icacheStallCycles             457247                       # Number of cycles fetch is stalled on an Icache miss
system.cpu.fetch.predictedBranches             317998                       # Number of branches that fetch has predicted taken
system.cpu.fetch.rate                        1.068846                       # Number of inst fetches per cycle
system.cpu.fetch.rateDist::samples            3047534                       # Number of instructions fetched each cycle (Total)
system.cpu.fetch.rateDist::mean              2.005524                       # Number of instructions fetched each cycle (Total)
system.cpu.fetch.rateDist::stdev             1.921808                       # Number of instructions fetched each cycle (Total)
system.cpu.fetch.rateDist::underflows               0      0.00%      0.00% # Number of instructions fetched each cycle (Total)
system.cpu.fetch.rateDist::0                  1371686     45.01%     45.01% # Number of instructions fetched each cycle (Total)
system.cpu.fetch.rateDist::1                   115235      3.78%     48.79% # Number of instructions fetched each cycle (Total)
system.cpu.fetch.rateDist::2                    74301      2.44%     51.23% # Number of instructions fetched each cycle (Total)
system.cpu.fetch.rateDist::3                    97181      3.19%     54.42% # Number of instructions fetched each cycle (Total)
system.cpu.fetch.rateDist::4                  1389131     45.58%    100.00% # Number of instructions fetched each cycle (Total)
system.cpu.fetch.rateDist::overflows                0      0.00%    100.00% # Number of instructions fetched each cycle (Total)
system.cpu.fetch.rateDist::min_value                0                       # Number of instructions fetched each cycle (Total)
system.cpu.fetch.rateDist::max_value                4                       # Number of instructions fetched each cycle (Total)
system.cpu.fetch.rateDist::total              3047534                       # Number of instructions fetched each cycle (Total)
system.cpu.fp_regfile_reads                    184606                       # number of floating regfile reads
system.cpu.fp_regfile_writes                    99468                       # number of floating regfile writes
system.cpu.fuPool.fu_ticks_busy::IntALU(0)    274513600                       # Total ticks fu was busy
system.cpu.fuPool.fu_ticks_busy::IntALU(1)    274513600                       # Total ticks fu was busy
system.cpu.fuPool.fu_ticks_busy::IntALU(2)    274513600                       # Total ticks fu was busy
system.cpu.fuPool.fu_ticks_busy::IntALU(3)    274513200                       # Total ticks fu was busy
system.cpu.fuPool.fu_ticks_busy::IntALU(4)    274513200                       # Total ticks fu was busy
system.cpu.fuPool.fu_ticks_busy::IntALU(5)    274513200                       # Total ticks fu was busy
system.cpu.fuPool.fu_ticks_busy::IntMultDiv(0)      9963600                       # Total ticks fu was busy
system.cpu.fuPool.fu_ticks_busy::IntMultDiv(1)      9962800                       # Total ticks fu was busy
system.cpu.fuPool.fu_ticks_busy::FP_ALU(0)       720400                       # Total ticks fu was busy
system.cpu.fuPool.fu_ticks_busy::FP_ALU(1)       720400                       # Total ticks fu was busy
system.cpu.fuPool.fu_ticks_busy::FP_ALU(2)       720000                       # Total ticks fu was busy
system.cpu.fuPool.fu_ticks_busy::FP_ALU(3)       719600                       # Total ticks fu was busy
system.cpu.fuPool.fu_ticks_busy::FP_MultDiv(0)            0                       # Total ticks fu was busy
system.cpu.fuPool.fu_ticks_busy::FP_MultDiv(1)            0                       # Total ticks fu was busy
system.cpu.fuPool.fu_ticks_busy::SIMD_Unit(0)      7297200                       # Total ticks fu was busy
system.cpu.fuPool.fu_ticks_busy::SIMD_Unit(1)      7220400                       # Total ticks fu was busy
system.cpu.fuPool.fu_ticks_busy::SIMD_Unit(2)      7062400                       # Total ticks fu was busy
system.cpu.fuPool.fu_ticks_busy::SIMD_Unit(3)      6931600                       # Total ticks fu was busy
system.cpu.fuPool.fu_ticks_busy::PredALU(0)            0                       # Total ticks fu was busy
system.cpu.fuPool.fu_ticks_busy::RdWrPort(0)    100295600                       # Total ticks fu was busy
system.cpu.fuPool.fu_ticks_busy::RdWrPort(1)    100303200                       # Total ticks fu was busy
system.cpu.fuPool.fu_ticks_busy::RdWrPort(2)    100180000                       # Total ticks fu was busy
system.cpu.fuPool.fu_ticks_busy::RdWrPort(3)    100317200                       # Total ticks fu was busy
system.cpu.fuPool.fu_ticks_busy::IprPort(0)            0                       # Total ticks fu was busy
system.cpu.fuPool.fu_ticks_busy::total     2099494800                       # Total ticks fu was busy
system.cpu.icache.prefetcher.num_hwpf_issued            0                       # number of hwpf issued
system.cpu.icache.prefetcher.pfBufferHit            0                       # number of redundant prefetches already in prefetch queue
system.cpu.icache.prefetcher.pfIdentified            0                       # number of prefetch candidates identified
system.cpu.icache.prefetcher.pfInCache              0                       # number of redundant prefetches already in cache/mshr dropped
system.cpu.icache.prefetcher.pfRemovedFull            0                       # number of prefetches dropped due to prefetch queue size
system.cpu.icache.prefetcher.pfSpanPage             0                       # number of prefetches that crossed the page
system.cpu.idleCycles                          163973                       # Total number of cycles that the CPU has spent unscheduled due to idling
system.cpu.iew.branchMispredicts                29933                       # Number of branch mispredicts detected at execute
system.cpu.iew.exec_branches                   494945                       # Number of branches executed
system.cpu.iew.exec_nop                             0                       # number of nop insts executed
system.cpu.iew.exec_rate                     1.632575                       # Inst execution rate
system.cpu.iew.exec_refs                       989207                       # number of memory reference insts executed
system.cpu.iew.exec_stores                     277556                       # Number of stores executed
system.cpu.iew.exec_swp                             0                       # number of swp insts executed
system.cpu.iew.iewBlockCycles                  704324                       # Number of cycles IEW is blocking
system.cpu.iew.iewDispLoadInsts                744666                       # Number of dispatched load instructions
system.cpu.iew.iewDispNonSpecInsts                939                       # Number of dispatched non-speculative instructions
system.cpu.iew.iewDispSquashedInsts               602                       # Number of squashed instructions skipped by dispatch
system.cpu.iew.iewDispStoreInsts               289325                       # Number of dispatched store instructions
system.cpu.iew.iewDispatchedInsts             5611449                       # Number of instructions dispatched to IQ
system.cpu.iew.iewExecLoadInsts                711651                       # Number of load instructions executed
system.cpu.iew.iewExecSquashedInsts             36314                       # Number of squashed instructions skipped in execute
system.cpu.iew.iewExecutedInsts               5243025                       # Number of executed instructions
system.cpu.iew.iewIQFullEvents                   3290                       # Number of times the IQ has become full, causing a stall
system.cpu.iew.iewIdleCycles                        0                       # Number of cycles IEW is idle
system.cpu.iew.iewLSQFullEvents                  9024                       # Number of times the LSQ has become full, causing a stall
system.cpu.iew.iewSquashCycles                  25433                       # Number of cycles IEW is squashing
system.cpu.iew.iewUnblockCycles                 15153                       # Number of cycles IEW is unblocking
system.cpu.iew.lsq.thread0.blockedLoads             0                       # Number of blocked loads due to partial load-store forwarding
system.cpu.iew.lsq.thread0.cacheBlocked           578                       # Number of times an access to memory failed due to the cache being blocked
system.cpu.iew.lsq.thread0.forwLoads            48679                       # Number of loads that had data forwarded from stores
system.cpu.iew.lsq.thread0.ignoredResponses          244                       # Number of memory responses ignored because the instruction is squashed
system.cpu.iew.lsq.thread0.invAddrLoads             0                       # Number of loads ignored due to an invalid address
system.cpu.iew.lsq.thread0.invAddrSwpfs             0                       # Number of software prefetches ignored due to an invalid address
system.cpu.iew.lsq.thread0.memOrderViolation           91                       # Number of memory ordering violations
system.cpu.iew.lsq.thread0.rescheduledLoads           67                       # Number of loads that were rescheduled
system.cpu.iew.lsq.thread0.squashedLoads       122683                       # Number of loads squashed
system.cpu.iew.lsq.thread0.squashedStores        31751                       # Number of stores squashed
system.cpu.iew.memOrderViolationEvents             91                       # Number of memory order violations
system.cpu.iew.predictedNotTakenIncorrect        21179                       # Number of branches that were predicted not taken incorrectly
system.cpu.iew.predictedTakenIncorrect           8754                       # Number of branches that were predicted taken incorrectly
system.cpu.iew.wb_consumers                   7054562                       # num instructions consuming a value
system.cpu.iew.wb_count                       5220679                       # cumulative count of insts written-back
system.cpu.iew.wb_fanout                     0.577066                       # average fanout of values written-back
system.cpu.iew.wb_producers                   4070950                       # num instructions producing a value
system.cpu.iew.wb_rate                       1.625617                       # insts written-back per cycle
system.cpu.iew.wb_sent                        5227791                       # cumulative count of insts sent to commit
system.cpu.int_regfile_reads                  8074777                       # number of integer regfile reads
system.cpu.int_regfile_writes                 4429994                       # number of integer regfile writes
system.cpu.ipc                               0.820980                       # IPC: Instructions Per Cycle
system.cpu.ipc_total                         0.820980                       # IPC: Total IPC of All Threads
system.cpu.iq.FU_type_0::No_OpClass             30602      0.58%      0.58% # Type of FU issued
system.cpu.iq.FU_type_0::IntAlu               4117702     78.00%     78.58% # Type of FU issued
system.cpu.iq.FU_type_0::IntMult                 7585      0.14%     78.72% # Type of FU issued
system.cpu.iq.FU_type_0::IntDiv                 42231      0.80%     79.52% # Type of FU issued
system.cpu.iq.FU_type_0::FloatAdd                5939      0.11%     79.63% # Type of FU issued
system.cpu.iq.FU_type_0::FloatCmp                   0      0.00%     79.63% # Type of FU issued
system.cpu.iq.FU_type_0::FloatCvt                1262      0.02%     79.66% # Type of FU issued
system.cpu.iq.FU_type_0::FloatMult                  0      0.00%     79.66% # Type of FU issued
system.cpu.iq.FU_type_0::FloatMultAcc               0      0.00%     79.66% # Type of FU issued
system.cpu.iq.FU_type_0::FloatDiv                   0      0.00%     79.66% # Type of FU issued
system.cpu.iq.FU_type_0::FloatMisc                  0      0.00%     79.66% # Type of FU issued
system.cpu.iq.FU_type_0::FloatSqrt                  0      0.00%     79.66% # Type of FU issued
system.cpu.iq.FU_type_0::SimdAdd                 6894      0.13%     79.79% # Type of FU issued
system.cpu.iq.FU_type_0::SimdAddAcc                 0      0.00%     79.79% # Type of FU issued
system.cpu.iq.FU_type_0::SimdAlu                21053      0.40%     80.19% # Type of FU issued
system.cpu.iq.FU_type_0::SimdCmp                    0      0.00%     80.19% # Type of FU issued
system.cpu.iq.FU_type_0::SimdCvt                20114      0.38%     80.57% # Type of FU issued
system.cpu.iq.FU_type_0::SimdMisc               20972      0.40%     80.96% # Type of FU issued
system.cpu.iq.FU_type_0::SimdMult                   0      0.00%     80.96% # Type of FU issued
system.cpu.iq.FU_type_0::SimdMultAcc                0      0.00%     80.96% # Type of FU issued
system.cpu.iq.FU_type_0::SimdShift               2246      0.04%     81.01% # Type of FU issued
system.cpu.iq.FU_type_0::SimdShiftAcc               0      0.00%     81.01% # Type of FU issued
system.cpu.iq.FU_type_0::SimdDiv                    0      0.00%     81.01% # Type of FU issued
system.cpu.iq.FU_type_0::SimdSqrt                   0      0.00%     81.01% # Type of FU issued
system.cpu.iq.FU_type_0::SimdFloatAdd               0      0.00%     81.01% # Type of FU issued
system.cpu.iq.FU_type_0::SimdFloatAlu               0      0.00%     81.01% # Type of FU issued
system.cpu.iq.FU_type_0::SimdFloatCmp               0      0.00%     81.01% # Type of FU issued
system.cpu.iq.FU_type_0::SimdFloatCvt               0      0.00%     81.01% # Type of FU issued
system.cpu.iq.FU_type_0::SimdFloatDiv               0      0.00%     81.01% # Type of FU issued
system.cpu.iq.FU_type_0::SimdFloatMisc              0      0.00%     81.01% # Type of FU issued
system.cpu.iq.FU_type_0::SimdFloatMult              0      0.00%     81.01% # Type of FU issued
system.cpu.iq.FU_type_0::SimdFloatMultAcc            0      0.00%     81.01% # Type of FU issued
system.cpu.iq.FU_type_0::SimdFloatSqrt              0      0.00%     81.01% # Type of FU issued
system.cpu.iq.FU_type_0::SimdReduceAdd              0      0.00%     81.01% # Type of FU issued
system.cpu.iq.FU_type_0::SimdReduceAlu              0      0.00%     81.01% # Type of FU issued
system.cpu.iq.FU_type_0::SimdReduceCmp              0      0.00%     81.01% # Type of FU issued
system.cpu.iq.FU_type_0::SimdFloatReduceAdd            0      0.00%     81.01% # Type of FU issued
system.cpu.iq.FU_type_0::SimdFloatReduceCmp            0      0.00%     81.01% # Type of FU issued
system.cpu.iq.FU_type_0::SimdAes                    0      0.00%     81.01% # Type of FU issued
system.cpu.iq.FU_type_0::SimdAesMix                 0      0.00%     81.01% # Type of FU issued
system.cpu.iq.FU_type_0::SimdSha1Hash               0      0.00%     81.01% # Type of FU issued
system.cpu.iq.FU_type_0::SimdSha1Hash2              0      0.00%     81.01% # Type of FU issued
system.cpu.iq.FU_type_0::SimdSha256Hash             0      0.00%     81.01% # Type of FU issued
system.cpu.iq.FU_type_0::SimdSha256Hash2            0      0.00%     81.01% # Type of FU issued
system.cpu.iq.FU_type_0::SimdShaSigma2              0      0.00%     81.01% # Type of FU issued
system.cpu.iq.FU_type_0::SimdShaSigma3              0      0.00%     81.01% # Type of FU issued
system.cpu.iq.FU_type_0::SimdPredAlu                0      0.00%     81.01% # Type of FU issued
system.cpu.iq.FU_type_0::MemRead               693324     13.13%     94.14% # Type of FU issued
system.cpu.iq.FU_type_0::MemWrite              265621      5.03%     99.17% # Type of FU issued
system.cpu.iq.FU_type_0::FloatMemRead           29254      0.55%     99.72% # Type of FU issued
system.cpu.iq.FU_type_0::FloatMemWrite          14543      0.28%    100.00% # Type of FU issued
system.cpu.iq.FU_type_0::IprAccess                  0      0.00%    100.00% # Type of FU issued
system.cpu.iq.FU_type_0::InstPrefetch               0      0.00%    100.00% # Type of FU issued
system.cpu.iq.FU_type_0::total                5279342                       # Type of FU issued
system.cpu.iq.fp_alu_accesses                  127910                       # Number of floating point alu accesses
system.cpu.iq.fp_inst_queue_reads              257206                       # Number of floating instruction queue reads
system.cpu.iq.fp_inst_queue_wakeup_accesses       124445                       # Number of floating instruction queue wakeup accesses
system.cpu.iq.fp_inst_queue_writes             168337                       # Number of floating instruction queue writes
system.cpu.iq.fu_busy_cnt                           0                       # FU busy when requested
system.cpu.iq.fu_busy_rate                          0                       # FU busy rate (busy events/executed inst)
system.cpu.iq.fu_full::No_OpClass                   0                       # attempts to use FU when none available
system.cpu.iq.fu_full::IntAlu                       0                       # attempts to use FU when none available
system.cpu.iq.fu_full::IntMult                      0                       # attempts to use FU when none available
system.cpu.iq.fu_full::IntDiv                       0                       # attempts to use FU when none available
system.cpu.iq.fu_full::FloatAdd                     0                       # attempts to use FU when none available
system.cpu.iq.fu_full::FloatCmp                     0                       # attempts to use FU when none available
system.cpu.iq.fu_full::FloatCvt                     0                       # attempts to use FU when none available
system.cpu.iq.fu_full::FloatMult                    0                       # attempts to use FU when none available
system.cpu.iq.fu_full::FloatMultAcc                 0                       # attempts to use FU when none available
system.cpu.iq.fu_full::FloatDiv                     0                       # attempts to use FU when none available
system.cpu.iq.fu_full::FloatMisc                    0                       # attempts to use FU when none available
system.cpu.iq.fu_full::FloatSqrt                    0                       # attempts to use FU when none available
system.cpu.iq.fu_full::SimdAdd                      0                       # attempts to use FU when none available
system.cpu.iq.fu_full::SimdAddAcc                   0                       # attempts to use FU when none available
system.cpu.iq.fu_full::SimdAlu                      0                       # attempts to use FU when none available
system.cpu.iq.fu_full::SimdCmp                      0                       # attempts to use FU when none available
system.cpu.iq.fu_full::SimdCvt                      0                       # attempts to use FU when none available
system.cpu.iq.fu_full::SimdMisc                     0                       # attempts to use FU when none available
system.cpu.iq.fu_full::SimdMult                     0                       # attempts to use FU when none available
system.cpu.iq.fu_full::SimdMultAcc                  0                       # attempts to use FU when none available
system.cpu.iq.fu_full::SimdShift                    0                       # attempts to use FU when none available
system.cpu.iq.fu_full::SimdShiftAcc                 0                       # attempts to use FU when none available
system.cpu.iq.fu_full::SimdDiv                      0                       # attempts to use FU when none available
system.cpu.iq.fu_full::SimdSqrt                     0                       # attempts to use FU when none available
system.cpu.iq.fu_full::SimdFloatAdd                 0                       # attempts to use FU when none available
system.cpu.iq.fu_full::SimdFloatAlu                 0                       # attempts to use FU when none available
system.cpu.iq.fu_full::SimdFloatCmp                 0                       # attempts to use FU when none available
system.cpu.iq.fu_full::SimdFloatCvt                 0                       # attempts to use FU when none available
system.cpu.iq.fu_full::SimdFloatDiv                 0                       # attempts to use FU when none available
system.cpu.iq.fu_full::SimdFloatMisc                0                       # attempts to use FU when none available
system.cpu.iq.fu_full::SimdFloatMult                0                       # attempts to use FU when none available
system.cpu.iq.fu_full::SimdFloatMultAcc             0                       # attempts to use FU when none available
system.cpu.iq.fu_full::SimdFloatSqrt                0                       # attempts to use FU when none available
system.cpu.iq.fu_full::SimdReduceAdd                0                       # attempts to use FU when none available
system.cpu.iq.fu_full::SimdReduceAlu                0                       # attempts to use FU when none available
system.cpu.iq.fu_full::SimdReduceCmp                0                       # attempts to use FU when none available
system.cpu.iq.fu_full::SimdFloatReduceAdd            0                       # attempts to use FU when none available
system.cpu.iq.fu_full::SimdFloatReduceCmp            0                       # attempts to use FU when none available
system.cpu.iq.fu_full::SimdAes                      0                       # attempts to use FU when none available
system.cpu.iq.fu_full::SimdAesMix                   0                       # attempts to use FU when none available
system.cpu.iq.fu_full::SimdSha1Hash                 0                       # attempts to use FU when none available
system.cpu.iq.fu_full::SimdSha1Hash2                0                       # attempts to use FU when none available
system.cpu.iq.fu_full::SimdSha256Hash               0                       # attempts to use FU when none available
system.cpu.iq.fu_full::SimdSha256Hash2              0                       # attempts to use FU when none available
system.cpu.iq.fu_full::SimdShaSigma2                0                       # attempts to use FU when none available
system.cpu.iq.fu_full::SimdShaSigma3                0                       # attempts to use FU when none available
system.cpu.iq.fu_full::SimdPredAlu                  0                       # attempts to use FU when none available
system.cpu.iq.fu_full::MemRead                      0                       # attempts to use FU when none available
system.cpu.iq.fu_full::MemWrite                     0                       # attempts to use FU when none available
system.cpu.iq.fu_full::FloatMemRead                 0                       # attempts to use FU when none available
system.cpu.iq.fu_full::FloatMemWrite                0                       # attempts to use FU when none available
system.cpu.iq.fu_full::IprAccess                    0                       # attempts to use FU when none available
system.cpu.iq.fu_full::InstPrefetch                 0                       # attempts to use FU when none available
system.cpu.iq.int_alu_accesses                5120830                       # Number of integer alu accesses
system.cpu.iq.int_inst_queue_reads           13368570                       # Number of integer instruction queue reads
system.cpu.iq.int_inst_queue_wakeup_accesses      5096234                       # Number of integer instruction queue wakeup accesses
system.cpu.iq.int_inst_queue_writes           6368536                       # Number of integer instruction queue writes
system.cpu.iq.iqInstsAdded                    5610329                       # Number of instructions added to the IQ (excludes non-spec)
system.cpu.iq.iqInstsIssued                   5279342                       # Number of instructions issued
system.cpu.iq.iqNonSpecInstsAdded                1120                       # Number of non-speculative instructions added to the IQ
system.cpu.iq.iqSquashedInstsExamined          925335                       # Number of squashed instructions iterated over during squash; mainly for profiling
system.cpu.iq.iqSquashedInstsIssued             19561                       # Number of squashed instructions issued
system.cpu.iq.iqSquashedNonSpecRemoved            377                       # Number of squashed non-spec instructions that were removed
system.cpu.iq.iqSquashedOperandsExamined      1370068                       # Number of squashed operands that are examined and possibly removed from graph
system.cpu.iq.issued_per_cycle::samples       3047534                       # Number of insts issued each cycle
system.cpu.iq.issued_per_cycle::mean         1.732332                       # Number of insts issued each cycle
system.cpu.iq.issued_per_cycle::stdev        1.655193                       # Number of insts issued each cycle
system.cpu.iq.issued_per_cycle::underflows            0      0.00%      0.00% # Number of insts issued each cycle
system.cpu.iq.issued_per_cycle::0             1238588     40.64%     40.64% # Number of insts issued each cycle
system.cpu.iq.issued_per_cycle::1              245390      8.05%     48.69% # Number of insts issued each cycle
system.cpu.iq.issued_per_cycle::2              387207     12.71%     61.40% # Number of insts issued each cycle
system.cpu.iq.issued_per_cycle::3              445858     14.63%     76.03% # Number of insts issued each cycle
system.cpu.iq.issued_per_cycle::4              730491     23.97%    100.00% # Number of insts issued each cycle
system.cpu.iq.issued_per_cycle::overflows            0      0.00%    100.00% # Number of insts issued each cycle
system.cpu.iq.issued_per_cycle::min_value            0                       # Number of insts issued each cycle
system.cpu.iq.issued_per_cycle::max_value            4                       # Number of insts issued each cycle
system.cpu.iq.issued_per_cycle::total         3047534                       # Number of insts issued each cycle
system.cpu.iq.rate                           1.643883                       # Inst issue rate
system.cpu.iq.vec_alu_accesses                      0                       # Number of vector alu accesses
system.cpu.iq.vec_inst_queue_reads                  0                       # Number of vector instruction queue reads
system.cpu.iq.vec_inst_queue_wakeup_accesses            0                       # Number of vector instruction queue wakeup accesses
system.cpu.iq.vec_inst_queue_writes                 0                       # Number of vector instruction queue writes
system.cpu.itb.rdAccesses                           0                       # TLB accesses on read requests
system.cpu.itb.rdMisses                             0                       # TLB misses on read requests
system.cpu.itb.wrAccesses                      341642                       # TLB accesses on write requests
system.cpu.itb.wrMisses                           361                       # TLB misses on write requests
system.cpu.memDep0.conflictingLoads             17535                       # Number of conflicting loads.
system.cpu.memDep0.conflictingStores             6339                       # Number of conflicting stores.
system.cpu.memDep0.insertedLoads               744666                       # Number of loads inserted to the mem dependence unit.
system.cpu.memDep0.insertedStores              289325                       # Number of stores inserted to the mem dependence unit.
system.cpu.misc_regfile_reads                 2018887                       # number of misc regfile reads
system.cpu.misc_regfile_writes                    684                       # number of misc regfile writes
system.cpu.numCycles                          3211507                       # number of cpu cycles simulated
system.cpu.numWorkItemsCompleted                    0                       # number of work items this cpu completed
system.cpu.numWorkItemsStarted                      0                       # number of work items this cpu started
system.cpu.process.numSyscalls                     58                       # Number of system calls
system.cpu.rename.BlockCycles                  846516                       # Number of cycles rename is blocking
system.cpu.rename.CommittedMaps               6185107                       # Number of HB maps that are committed
system.cpu.rename.FullRegisterEvents              159                       # Number of times there has been no free registers
system.cpu.rename.IQFullEvents                  47997                       # Number of times rename has blocked due to IQ full
system.cpu.rename.IdleCycles                   477433                       # Number of cycles rename is idle
system.cpu.rename.LQFullEvents                  15254                       # Number of times rename has blocked due to LQ full
system.cpu.rename.ROBFullEvents                  4528                       # Number of times rename has blocked due to ROB full
system.cpu.rename.RenameLookups              14985188                       # Number of register rename lookups that rename has made
system.cpu.rename.RenamedInsts                5758644                       # Number of instructions processed by rename
system.cpu.rename.RenamedOperands             7630350                       # Number of destination operands rename has renamed
system.cpu.rename.RunCycles                   1495959                       # Number of cycles rename is running
system.cpu.rename.SQFullEvents                  80453                       # Number of times rename has blocked due to SQ full
system.cpu.rename.SquashCycles                  25433                       # Number of cycles rename is squashing
system.cpu.rename.UnblockCycles                181768                       # Number of cycles rename is unblocking
system.cpu.rename.UndoneMaps                  1445220                       # Number of HB maps that are undone due to squashing
system.cpu.rename.fp_rename_lookups            218939                       # Number of floating rename lookups
system.cpu.rename.int_rename_lookups          9056436                       # Number of integer rename lookups
system.cpu.rename.serializeStallCycles          20425                       # count of cycles rename stalled for serializing inst
system.cpu.rename.serializingInsts                882                       # count of serializing insts renamed
system.cpu.rename.skidInsts                    210637                       # count of insts added to the skid buffer
system.cpu.rename.tempSerializingInsts            935                       # count of temporary serializing insts renamed
system.cpu.rob.rob_reads                      7642605                       # The number of ROB reads
system.cpu.rob.rob_writes                    11475180                       # The number of ROB writes
system.cpu.timesIdled                            2543                       # Number of times that the entire CPU went into an idle state and unscheduled itself
system.l2bus.snoop_filter.hit_multi_requests           12                       # Number of requests hitting in the snoop filter with multiple (>1) holders of the requested data.
system.l2bus.snoop_filter.hit_multi_snoops            1                       # Number of snoops hitting in the snoop filter with multiple (>1) holders of the requested data.
system.l2bus.snoop_filter.hit_single_requests        19650                       # Number of requests hitting in the snoop filter with a single holder of the requested data.
system.l2bus.snoop_filter.hit_single_snoops          444                       # Number of snoops hitting in the snoop filter with a single holder of the requested data.
system.l2bus.snoop_filter.tot_requests          40580                       # Total number of requests made to the snoop filter.
system.l2bus.snoop_filter.tot_snoops              445                       # Total number of snoops made to the snoop filter.
system.l2cache.prefetcher.num_hwpf_issued          652                       # number of hwpf issued
system.l2cache.prefetcher.pfBufferHit               0                       # number of redundant prefetches already in prefetch queue
system.l2cache.prefetcher.pfIdentified            652                       # number of prefetch candidates identified
system.l2cache.prefetcher.pfInCache                 0                       # number of redundant prefetches already in cache/mshr dropped
system.l2cache.prefetcher.pfRemovedFull             0                       # number of prefetches dropped due to prefetch queue size
system.l2cache.prefetcher.pfSpanPage              124                       # number of prefetches that crossed the page
system.membus.snoop_filter.hit_multi_requests            0                       # Number of requests hitting in the snoop filter with multiple (>1) holders of the requested data.
system.membus.snoop_filter.hit_multi_snoops            0                       # Number of snoops hitting in the snoop filter with multiple (>1) holders of the requested data.
system.membus.snoop_filter.hit_single_requests         9513                       # Number of requests hitting in the snoop filter with a single holder of the requested data.
system.membus.snoop_filter.hit_single_snoops            0                       # Number of snoops hitting in the snoop filter with a single holder of the requested data.
system.membus.snoop_filter.tot_requests         23149                       # Total number of requests made to the snoop filter.
system.membus.snoop_filter.tot_snoops               0                       # Total number of snoops made to the snoop filter.
system.membus.pwrStateResidencyTicks::UNDEFINED   1284602400                       # Cumulative time (in ticks) in various power states
system.membus.trans_dist::ReadResp              12152                       # Transaction distribution
system.membus.trans_dist::WritebackDirty         1360                       # Transaction distribution
system.membus.trans_dist::CleanEvict             8153                       # Transaction distribution
system.membus.trans_dist::ReadExReq              1484                       # Transaction distribution
system.membus.trans_dist::ReadExResp             1484                       # Transaction distribution
system.membus.trans_dist::ReadSharedReq         12152                       # Transaction distribution
system.membus.pkt_count_system.l2cache.mem_side::system.mem_ctrl.port        36785                       # Packet count per connected master and slave (bytes)
system.membus.pkt_count_system.l2cache.mem_side::total        36785                       # Packet count per connected master and slave (bytes)
system.membus.pkt_count::total                  36785                       # Packet count per connected master and slave (bytes)
system.membus.pkt_size_system.l2cache.mem_side::system.mem_ctrl.port       959744                       # Cumulative packet size per connected master and slave (bytes)
system.membus.pkt_size_system.l2cache.mem_side::total       959744                       # Cumulative packet size per connected master and slave (bytes)
system.membus.pkt_size::total                  959744                       # Cumulative packet size per connected master and slave (bytes)
system.membus.snoops                                0                       # Total snoops (count)
system.membus.snoopTraffic                          0                       # Total snoop traffic (bytes)
system.membus.snoop_fanout::samples             13636                       # Request fanout histogram
system.membus.snoop_fanout::mean                    0                       # Request fanout histogram
system.membus.snoop_fanout::stdev                   0                       # Request fanout histogram
system.membus.snoop_fanout::underflows              0      0.00%      0.00% # Request fanout histogram
system.membus.snoop_fanout::0                   13636    100.00%    100.00% # Request fanout histogram
system.membus.snoop_fanout::1                       0      0.00%    100.00% # Request fanout histogram
system.membus.snoop_fanout::overflows               0      0.00%    100.00% # Request fanout histogram
system.membus.snoop_fanout::min_value               0                       # Request fanout histogram
system.membus.snoop_fanout::max_value               0                       # Request fanout histogram
system.membus.snoop_fanout::total               13636                       # Request fanout histogram
system.membus.reqLayer2.occupancy            11461784                       # Layer occupancy (ticks)
system.membus.reqLayer2.utilization               0.9                       # Layer utilization (%)
system.membus.respLayer0.occupancy           29592516                       # Layer occupancy (ticks)
system.membus.respLayer0.utilization              2.3                       # Layer utilization (%)
system.l2bus.pwrStateResidencyTicks::UNDEFINED   1284602400                       # Cumulative time (in ticks) in various power states
system.l2bus.trans_dist::ReadResp               18730                       # Transaction distribution
system.l2bus.trans_dist::WritebackDirty          4169                       # Transaction distribution
system.l2bus.trans_dist::CleanEvict             25084                       # Transaction distribution
system.l2bus.trans_dist::HardPFReq                914                       # Transaction distribution
system.l2bus.trans_dist::UpgradeReq                 2                       # Transaction distribution
system.l2bus.trans_dist::UpgradeResp                2                       # Transaction distribution
system.l2bus.trans_dist::ReadExReq               2200                       # Transaction distribution
system.l2bus.trans_dist::ReadExResp              2200                       # Transaction distribution
system.l2bus.trans_dist::ReadSharedReq          18730                       # Transaction distribution
system.l2bus.pkt_count_system.cpu.icache.mem_side::system.l2cache.cpu_side        11660                       # Packet count per connected master and slave (bytes)
system.l2bus.pkt_count_system.cpu.dcache.mem_side::system.l2cache.cpu_side        49848                       # Packet count per connected master and slave (bytes)
system.l2bus.pkt_count::total                   61508                       # Packet count per connected master and slave (bytes)
system.l2bus.pkt_size_system.cpu.icache.mem_side::system.l2cache.cpu_side       254144                       # Cumulative packet size per connected master and slave (bytes)
system.l2bus.pkt_size_system.cpu.dcache.mem_side::system.l2cache.cpu_side      1264896                       # Cumulative packet size per connected master and slave (bytes)
system.l2bus.pkt_size::total                  1519040                       # Cumulative packet size per connected master and slave (bytes)
system.l2bus.snoops                             10523                       # Total snoops (count)
system.l2bus.snoopTraffic                       87296                       # Total snoop traffic (bytes)
system.l2bus.snoop_fanout::samples              31451                       # Request fanout histogram
system.l2bus.snoop_fanout::mean              0.014626                       # Request fanout histogram
system.l2bus.snoop_fanout::stdev             0.120316                       # Request fanout histogram
system.l2bus.snoop_fanout::underflows               0      0.00%      0.00% # Request fanout histogram
system.l2bus.snoop_fanout::0                    30992     98.54%     98.54% # Request fanout histogram
system.l2bus.snoop_fanout::1                      458      1.46%    100.00% # Request fanout histogram
system.l2bus.snoop_fanout::2                        1      0.00%    100.00% # Request fanout histogram
system.l2bus.snoop_fanout::overflows                0      0.00%    100.00% # Request fanout histogram
system.l2bus.snoop_fanout::min_value                0                       # Request fanout histogram
system.l2bus.snoop_fanout::max_value                2                       # Request fanout histogram
system.l2bus.snoop_fanout::total                31451                       # Request fanout histogram
system.l2bus.respLayer1.occupancy            20349197                       # Layer occupancy (ticks)
system.l2bus.respLayer1.utilization               1.6                       # Layer utilization (%)
system.l2bus.reqLayer0.occupancy             19918238                       # Layer occupancy (ticks)
system.l2bus.reqLayer0.utilization                1.6                       # Layer utilization (%)
system.l2bus.respLayer0.occupancy             4769199                       # Layer occupancy (ticks)
system.l2bus.respLayer0.utilization               0.4                       # Layer utilization (%)
system.clk_domain.clock                           400                       # Clock period in ticks
system.clk_domain.voltage_domain.voltage            1                       # Voltage in Volts
system.cpu.pwrStateResidencyTicks::ON      1284602400                       # Cumulative time (in ticks) in various power states
system.cpu.icache.pwrStateResidencyTicks::UNDEFINED   1284602400                       # Cumulative time (in ticks) in various power states
system.cpu.icache.demand_hits::.cpu.inst       336889                       # number of demand (read+write) hits
system.cpu.icache.demand_hits::total           336889                       # number of demand (read+write) hits
system.cpu.icache.overall_hits::.cpu.inst       336889                       # number of overall hits
system.cpu.icache.overall_hits::total          336889                       # number of overall hits
system.cpu.icache.demand_misses::.cpu.inst         4649                       # number of demand (read+write) misses
system.cpu.icache.demand_misses::total           4649                       # number of demand (read+write) misses
system.cpu.icache.overall_misses::.cpu.inst         4649                       # number of overall misses
system.cpu.icache.overall_misses::total          4649                       # number of overall misses
system.cpu.icache.demand_miss_latency::.cpu.inst    188851599                       # number of demand (read+write) miss cycles
system.cpu.icache.demand_miss_latency::total    188851599                       # number of demand (read+write) miss cycles
system.cpu.icache.overall_miss_latency::.cpu.inst    188851599                       # number of overall miss cycles
system.cpu.icache.overall_miss_latency::total    188851599                       # number of overall miss cycles
system.cpu.icache.demand_accesses::.cpu.inst       341538                       # number of demand (read+write) accesses
system.cpu.icache.demand_accesses::total       341538                       # number of demand (read+write) accesses
system.cpu.icache.overall_accesses::.cpu.inst       341538                       # number of overall (read+write) accesses
system.cpu.icache.overall_accesses::total       341538                       # number of overall (read+write) accesses
system.cpu.icache.demand_miss_rate::.cpu.inst     0.013612                       # miss rate for demand accesses
system.cpu.icache.demand_miss_rate::total     0.013612                       # miss rate for demand accesses
system.cpu.icache.overall_miss_rate::.cpu.inst     0.013612                       # miss rate for overall accesses
system.cpu.icache.overall_miss_rate::total     0.013612                       # miss rate for overall accesses
system.cpu.icache.demand_avg_miss_latency::.cpu.inst 40621.983007                       # average overall miss latency
system.cpu.icache.demand_avg_miss_latency::total 40621.983007                       # average overall miss latency
system.cpu.icache.overall_avg_miss_latency::.cpu.inst 40621.983007                       # average overall miss latency
system.cpu.icache.overall_avg_miss_latency::total 40621.983007                       # average overall miss latency
system.cpu.icache.blocked_cycles::no_mshrs           97                       # number of cycles access was blocked
system.cpu.icache.blocked_cycles::no_targets            0                       # number of cycles access was blocked
system.cpu.icache.blocked::no_mshrs                 3                       # number of cycles access was blocked
system.cpu.icache.blocked::no_targets               0                       # number of cycles access was blocked
system.cpu.icache.avg_blocked_cycles::no_mshrs    32.333333                       # average number of cycles each access was blocked
system.cpu.icache.avg_blocked_cycles::no_targets          nan                       # average number of cycles each access was blocked
system.cpu.icache.writebacks::.writebacks            1                       # number of writebacks
system.cpu.icache.writebacks::total                 1                       # number of writebacks
system.cpu.icache.demand_mshr_hits::.cpu.inst          675                       # number of demand (read+write) MSHR hits
system.cpu.icache.demand_mshr_hits::total          675                       # number of demand (read+write) MSHR hits
system.cpu.icache.overall_mshr_hits::.cpu.inst          675                       # number of overall MSHR hits
system.cpu.icache.overall_mshr_hits::total          675                       # number of overall MSHR hits
system.cpu.icache.demand_mshr_misses::.cpu.inst         3974                       # number of demand (read+write) MSHR misses
system.cpu.icache.demand_mshr_misses::total         3974                       # number of demand (read+write) MSHR misses
system.cpu.icache.overall_mshr_misses::.cpu.inst         3974                       # number of overall MSHR misses
system.cpu.icache.overall_mshr_misses::total         3974                       # number of overall MSHR misses
system.cpu.icache.demand_mshr_miss_latency::.cpu.inst    155046799                       # number of demand (read+write) MSHR miss cycles
system.cpu.icache.demand_mshr_miss_latency::total    155046799                       # number of demand (read+write) MSHR miss cycles
system.cpu.icache.overall_mshr_miss_latency::.cpu.inst    155046799                       # number of overall MSHR miss cycles
system.cpu.icache.overall_mshr_miss_latency::total    155046799                       # number of overall MSHR miss cycles
system.cpu.icache.demand_mshr_miss_rate::.cpu.inst     0.011636                       # mshr miss rate for demand accesses
system.cpu.icache.demand_mshr_miss_rate::total     0.011636                       # mshr miss rate for demand accesses
system.cpu.icache.overall_mshr_miss_rate::.cpu.inst     0.011636                       # mshr miss rate for overall accesses
system.cpu.icache.overall_mshr_miss_rate::total     0.011636                       # mshr miss rate for overall accesses
system.cpu.icache.demand_avg_mshr_miss_latency::.cpu.inst 39015.299195                       # average overall mshr miss latency
system.cpu.icache.demand_avg_mshr_miss_latency::total 39015.299195                       # average overall mshr miss latency
system.cpu.icache.overall_avg_mshr_miss_latency::.cpu.inst 39015.299195                       # average overall mshr miss latency
system.cpu.icache.overall_avg_mshr_miss_latency::total 39015.299195                       # average overall mshr miss latency
system.cpu.icache.replacements                   3716                       # number of replacements
system.cpu.icache.ReadReq_hits::.cpu.inst       336889                       # number of ReadReq hits
system.cpu.icache.ReadReq_hits::total          336889                       # number of ReadReq hits
system.cpu.icache.ReadReq_misses::.cpu.inst         4649                       # number of ReadReq misses
system.cpu.icache.ReadReq_misses::total          4649                       # number of ReadReq misses
system.cpu.icache.ReadReq_miss_latency::.cpu.inst    188851599                       # number of ReadReq miss cycles
system.cpu.icache.ReadReq_miss_latency::total    188851599                       # number of ReadReq miss cycles
system.cpu.icache.ReadReq_accesses::.cpu.inst       341538                       # number of ReadReq accesses(hits+misses)
system.cpu.icache.ReadReq_accesses::total       341538                       # number of ReadReq accesses(hits+misses)
system.cpu.icache.ReadReq_miss_rate::.cpu.inst     0.013612                       # miss rate for ReadReq accesses
system.cpu.icache.ReadReq_miss_rate::total     0.013612                       # miss rate for ReadReq accesses
system.cpu.icache.ReadReq_avg_miss_latency::.cpu.inst 40621.983007                       # average ReadReq miss latency
system.cpu.icache.ReadReq_avg_miss_latency::total 40621.983007                       # average ReadReq miss latency
system.cpu.icache.ReadReq_mshr_hits::.cpu.inst          675                       # number of ReadReq MSHR hits
system.cpu.icache.ReadReq_mshr_hits::total          675                       # number of ReadReq MSHR hits
system.cpu.icache.ReadReq_mshr_misses::.cpu.inst         3974                       # number of ReadReq MSHR misses
system.cpu.icache.ReadReq_mshr_misses::total         3974                       # number of ReadReq MSHR misses
system.cpu.icache.ReadReq_mshr_miss_latency::.cpu.inst    155046799                       # number of ReadReq MSHR miss cycles
system.cpu.icache.ReadReq_mshr_miss_latency::total    155046799                       # number of ReadReq MSHR miss cycles
system.cpu.icache.ReadReq_mshr_miss_rate::.cpu.inst     0.011636                       # mshr miss rate for ReadReq accesses
system.cpu.icache.ReadReq_mshr_miss_rate::total     0.011636                       # mshr miss rate for ReadReq accesses
system.cpu.icache.ReadReq_avg_mshr_miss_latency::.cpu.inst 39015.299195                       # average ReadReq mshr miss latency
system.cpu.icache.ReadReq_avg_mshr_miss_latency::total 39015.299195                       # average ReadReq mshr miss latency
system.cpu.icache.prefetcher.pwrStateResidencyTicks::UNDEFINED   1284602400                       # Cumulative time (in ticks) in various power states
system.cpu.icache.tags.pwrStateResidencyTicks::UNDEFINED   1284602400                       # Cumulative time (in ticks) in various power states
system.cpu.icache.tags.tagsinuse           253.815466                       # Cycle average of tags in use
system.cpu.icache.tags.total_refs              285923                       # Total number of references to valid blocks.
system.cpu.icache.tags.sampled_refs              3718                       # Sample count of references to valid blocks.
system.cpu.icache.tags.avg_refs             76.902367                       # Average number of references to valid blocks.
system.cpu.icache.tags.warmup_cycle             66400                       # Cycle when the warmup percentage was hit.
system.cpu.icache.tags.occ_blocks::.cpu.inst   253.815466                       # Average occupied blocks per requestor
system.cpu.icache.tags.occ_percent::.cpu.inst     0.991467                       # Average percentage of cache occupancy
system.cpu.icache.tags.occ_percent::total     0.991467                       # Average percentage of cache occupancy
system.cpu.icache.tags.occ_task_id_blocks::1024          256                       # Occupied blocks per task id
system.cpu.icache.tags.age_task_id_blocks_1024::0          110                       # Occupied blocks per task id
system.cpu.icache.tags.age_task_id_blocks_1024::1            6                       # Occupied blocks per task id
system.cpu.icache.tags.age_task_id_blocks_1024::2          139                       # Occupied blocks per task id
system.cpu.icache.tags.age_task_id_blocks_1024::3            1                       # Occupied blocks per task id
system.cpu.icache.tags.occ_task_id_percent::1024            1                       # Percentage of cache occupancy per task id
system.cpu.icache.tags.tag_accesses            687050                       # Number of tag accesses
system.cpu.icache.tags.data_accesses           687050                       # Number of data accesses
system.cpu.dtb.walker.pwrStateResidencyTicks::UNDEFINED   1284602400                       # Cumulative time (in ticks) in various power states
system.cpu.interrupts.clk_domain.clock           6400                       # Clock period in ticks
system.cpu.itb.walker.pwrStateResidencyTicks::UNDEFINED   1284602400                       # Cumulative time (in ticks) in various power states
system.cpu.dcache.pwrStateResidencyTicks::UNDEFINED   1284602400                       # Cumulative time (in ticks) in various power states
system.cpu.dcache.demand_hits::.cpu.data       883255                       # number of demand (read+write) hits
system.cpu.dcache.demand_hits::total           883255                       # number of demand (read+write) hits
system.cpu.dcache.overall_hits::.cpu.data       883255                       # number of overall hits
system.cpu.dcache.overall_hits::total          883255                       # number of overall hits
system.cpu.dcache.demand_misses::.cpu.data        34496                       # number of demand (read+write) misses
system.cpu.dcache.demand_misses::total          34496                       # number of demand (read+write) misses
system.cpu.dcache.overall_misses::.cpu.data        34496                       # number of overall misses
system.cpu.dcache.overall_misses::total         34496                       # number of overall misses
system.cpu.dcache.demand_miss_latency::.cpu.data   1678911599                       # number of demand (read+write) miss cycles
system.cpu.dcache.demand_miss_latency::total   1678911599                       # number of demand (read+write) miss cycles
system.cpu.dcache.overall_miss_latency::.cpu.data   1678911599                       # number of overall miss cycles
system.cpu.dcache.overall_miss_latency::total   1678911599                       # number of overall miss cycles
system.cpu.dcache.demand_accesses::.cpu.data       917751                       # number of demand (read+write) accesses
system.cpu.dcache.demand_accesses::total       917751                       # number of demand (read+write) accesses
system.cpu.dcache.overall_accesses::.cpu.data       917751                       # number of overall (read+write) accesses
system.cpu.dcache.overall_accesses::total       917751                       # number of overall (read+write) accesses
system.cpu.dcache.demand_miss_rate::.cpu.data     0.037588                       # miss rate for demand accesses
system.cpu.dcache.demand_miss_rate::total     0.037588                       # miss rate for demand accesses
system.cpu.dcache.overall_miss_rate::.cpu.data     0.037588                       # miss rate for overall accesses
system.cpu.dcache.overall_miss_rate::total     0.037588                       # miss rate for overall accesses
system.cpu.dcache.demand_avg_miss_latency::.cpu.data 48669.747188                       # average overall miss latency
system.cpu.dcache.demand_avg_miss_latency::total 48669.747188                       # average overall miss latency
system.cpu.dcache.overall_avg_miss_latency::.cpu.data 48669.747188                       # average overall miss latency
system.cpu.dcache.overall_avg_miss_latency::total 48669.747188                       # average overall miss latency
system.cpu.dcache.blocked_cycles::no_mshrs        27693                       # number of cycles access was blocked
system.cpu.dcache.blocked_cycles::no_targets          175                       # number of cycles access was blocked
system.cpu.dcache.blocked::no_mshrs               709                       # number of cycles access was blocked
system.cpu.dcache.blocked::no_targets               3                       # number of cycles access was blocked
system.cpu.dcache.avg_blocked_cycles::no_mshrs    39.059238                       # average number of cycles each access was blocked
system.cpu.dcache.avg_blocked_cycles::no_targets    58.333333                       # average number of cycles each access was blocked
system.cpu.dcache.unused_prefetches              1730                       # number of HardPF blocks evicted w/o reference
system.cpu.dcache.writebacks::.writebacks         2808                       # number of writebacks
system.cpu.dcache.writebacks::total              2808                       # number of writebacks
system.cpu.dcache.demand_mshr_hits::.cpu.data        21921                       # number of demand (read+write) MSHR hits
system.cpu.dcache.demand_mshr_hits::total        21921                       # number of demand (read+write) MSHR hits
system.cpu.dcache.overall_mshr_hits::.cpu.data        21921                       # number of overall MSHR hits
system.cpu.dcache.overall_mshr_hits::total        21921                       # number of overall MSHR hits
system.cpu.dcache.demand_mshr_misses::.cpu.data        12575                       # number of demand (read+write) MSHR misses
system.cpu.dcache.demand_mshr_misses::total        12575                       # number of demand (read+write) MSHR misses
system.cpu.dcache.overall_mshr_misses::.cpu.data        12575                       # number of overall MSHR misses
system.cpu.dcache.overall_mshr_misses::.cpu.dcache.prefetcher         4383                       # number of overall MSHR misses
system.cpu.dcache.overall_mshr_misses::total        16958                       # number of overall MSHR misses
system.cpu.dcache.demand_mshr_miss_latency::.cpu.data    581210799                       # number of demand (read+write) MSHR miss cycles
system.cpu.dcache.demand_mshr_miss_latency::total    581210799                       # number of demand (read+write) MSHR miss cycles
system.cpu.dcache.overall_mshr_miss_latency::.cpu.data    581210799                       # number of overall MSHR miss cycles
system.cpu.dcache.overall_mshr_miss_latency::.cpu.dcache.prefetcher    251868513                       # number of overall MSHR miss cycles
system.cpu.dcache.overall_mshr_miss_latency::total    833079312                       # number of overall MSHR miss cycles
system.cpu.dcache.demand_mshr_miss_rate::.cpu.data     0.013702                       # mshr miss rate for demand accesses
system.cpu.dcache.demand_mshr_miss_rate::total     0.013702                       # mshr miss rate for demand accesses
system.cpu.dcache.overall_mshr_miss_rate::.cpu.data     0.013702                       # mshr miss rate for overall accesses
system.cpu.dcache.overall_mshr_miss_rate::.cpu.dcache.prefetcher          inf                       # mshr miss rate for overall accesses
system.cpu.dcache.overall_mshr_miss_rate::total     0.018478                       # mshr miss rate for overall accesses
system.cpu.dcache.demand_avg_mshr_miss_latency::.cpu.data 46219.546640                       # average overall mshr miss latency
system.cpu.dcache.demand_avg_mshr_miss_latency::total 46219.546640                       # average overall mshr miss latency
system.cpu.dcache.overall_avg_mshr_miss_latency::.cpu.data 46219.546640                       # average overall mshr miss latency
system.cpu.dcache.overall_avg_mshr_miss_latency::.cpu.dcache.prefetcher 57464.867214                       # average overall mshr miss latency
system.cpu.dcache.overall_avg_mshr_miss_latency::total 49126.035617                       # average overall mshr miss latency
system.cpu.dcache.replacements                  15932                       # number of replacements
system.cpu.dcache.ReadReq_hits::.cpu.data       627693                       # number of ReadReq hits
system.cpu.dcache.ReadReq_hits::total          627693                       # number of ReadReq hits
system.cpu.dcache.ReadReq_misses::.cpu.data        32251                       # number of ReadReq misses
system.cpu.dcache.ReadReq_misses::total         32251                       # number of ReadReq misses
system.cpu.dcache.ReadReq_miss_latency::.cpu.data   1563175200                       # number of ReadReq miss cycles
system.cpu.dcache.ReadReq_miss_latency::total   1563175200                       # number of ReadReq miss cycles
system.cpu.dcache.ReadReq_accesses::.cpu.data       659944                       # number of ReadReq accesses(hits+misses)
system.cpu.dcache.ReadReq_accesses::total       659944                       # number of ReadReq accesses(hits+misses)
system.cpu.dcache.ReadReq_miss_rate::.cpu.data     0.048869                       # miss rate for ReadReq accesses
system.cpu.dcache.ReadReq_miss_rate::total     0.048869                       # miss rate for ReadReq accesses
system.cpu.dcache.ReadReq_avg_miss_latency::.cpu.data 48469.045921                       # average ReadReq miss latency
system.cpu.dcache.ReadReq_avg_miss_latency::total 48469.045921                       # average ReadReq miss latency
system.cpu.dcache.ReadReq_mshr_hits::.cpu.data        21878                       # number of ReadReq MSHR hits
system.cpu.dcache.ReadReq_mshr_hits::total        21878                       # number of ReadReq MSHR hits
system.cpu.dcache.ReadReq_mshr_misses::.cpu.data        10373                       # number of ReadReq MSHR misses
system.cpu.dcache.ReadReq_mshr_misses::total        10373                       # number of ReadReq MSHR misses
system.cpu.dcache.ReadReq_mshr_miss_latency::.cpu.data    468987200                       # number of ReadReq MSHR miss cycles
system.cpu.dcache.ReadReq_mshr_miss_latency::total    468987200                       # number of ReadReq MSHR miss cycles
system.cpu.dcache.ReadReq_mshr_miss_rate::.cpu.data     0.015718                       # mshr miss rate for ReadReq accesses
system.cpu.dcache.ReadReq_mshr_miss_rate::total     0.015718                       # mshr miss rate for ReadReq accesses
system.cpu.dcache.ReadReq_avg_mshr_miss_latency::.cpu.data 45212.301166                       # average ReadReq mshr miss latency
system.cpu.dcache.ReadReq_avg_mshr_miss_latency::total 45212.301166                       # average ReadReq mshr miss latency
system.cpu.dcache.WriteReq_hits::.cpu.data       255562                       # number of WriteReq hits
system.cpu.dcache.WriteReq_hits::total         255562                       # number of WriteReq hits
system.cpu.dcache.WriteReq_misses::.cpu.data         2245                       # number of WriteReq misses
system.cpu.dcache.WriteReq_misses::total         2245                       # number of WriteReq misses
system.cpu.dcache.WriteReq_miss_latency::.cpu.data    115736399                       # number of WriteReq miss cycles
system.cpu.dcache.WriteReq_miss_latency::total    115736399                       # number of WriteReq miss cycles
system.cpu.dcache.WriteReq_accesses::.cpu.data       257807                       # number of WriteReq accesses(hits+misses)
system.cpu.dcache.WriteReq_accesses::total       257807                       # number of WriteReq accesses(hits+misses)
system.cpu.dcache.WriteReq_miss_rate::.cpu.data     0.008708                       # miss rate for WriteReq accesses
system.cpu.dcache.WriteReq_miss_rate::total     0.008708                       # miss rate for WriteReq accesses
system.cpu.dcache.WriteReq_avg_miss_latency::.cpu.data 51552.961693                       # average WriteReq miss latency
system.cpu.dcache.WriteReq_avg_miss_latency::total 51552.961693                       # average WriteReq miss latency
[...]
system.l2cache.demand_mshr_misses::.cpu.data          135                       # number of demand (read+write) MSHR misses
system.l2cache.demand_mshr_misses::.cpu.dcache.prefetcher           32                       # number of demand (read+write) MSHR misses
system.l2cache.demand_mshr_misses::total          411                       # number of demand (read+write) MSHR misses
system.l2cache.overall_mshr_misses::.cpu.inst          244                       # number of overall MSHR misses
system.l2cache.overall_mshr_misses::.cpu.data          135                       # number of overall MSHR misses
system.l2cache.overall_mshr_misses::.cpu.dcache.prefetcher           32                       # number of overall MSHR misses
system.l2cache.overall_mshr_misses::total          411                       # number of overall MSHR misses
system.l2cache.demand_mshr_miss_latency::.cpu.inst     15106400                       # number of demand (read+write) MSHR miss cycles
system.l2cache.demand_mshr_miss_latency::.cpu.data      7941200                       # number of demand (read+write) MSHR miss cycles
system.l2cache.demand_mshr_miss_latency::.cpu.dcache.prefetcher      2045967                       # number of demand (read+write) MSHR miss cycles
system.l2cache.demand_mshr_miss_latency::total     25093567                       # number of demand (read+write) MSHR miss cycles
system.l2cache.overall_mshr_miss_latency::.cpu.inst     15106400                       # number of overall MSHR miss cycles
system.l2cache.overall_mshr_miss_latency::.cpu.data      7941200                       # number of overall MSHR miss cycles
system.l2cache.overall_mshr_miss_latency::.cpu.dcache.prefetcher      2045967                       # number of overall MSHR miss cycles
system.l2cache.overall_mshr_miss_latency::total     25093567                       # number of overall MSHR miss cycles
system.l2cache.demand_mshr_miss_rate::.cpu.inst     0.153074                       # mshr miss rate for demand accesses
system.l2cache.demand_mshr_miss_rate::.cpu.data     0.445545                       # mshr miss rate for demand accesses
system.l2cache.demand_mshr_miss_rate::.cpu.dcache.prefetcher     0.820513                       # mshr miss rate for demand accesses
system.l2cache.demand_mshr_miss_rate::total     0.212293                       # mshr miss rate for demand accesses
system.l2cache.overall_mshr_miss_rate::.cpu.inst     0.153074                       # mshr miss rate for overall accesses
system.l2cache.overall_mshr_miss_rate::.cpu.data     0.445545                       # mshr miss rate for overall accesses
system.l2cache.overall_mshr_miss_rate::.cpu.dcache.prefetcher     0.820513                       # mshr miss rate for overall accesses
system.l2cache.overall_mshr_miss_rate::total     0.212293                       # mshr miss rate for overall accesses
system.l2cache.demand_avg_mshr_miss_latency::.cpu.inst 61911.475410                       # average overall mshr miss latency
system.l2cache.demand_avg_mshr_miss_latency::.cpu.data 58823.703704                       # average overall mshr miss latency
system.l2cache.demand_avg_mshr_miss_latency::.cpu.dcache.prefetcher 63936.468750                       # average overall mshr miss latency
system.l2cache.demand_avg_mshr_miss_latency::total 61054.907543                       # average overall mshr miss latency
system.l2cache.overall_avg_mshr_miss_latency::.cpu.inst 61911.475410                       # average overall mshr miss latency
system.l2cache.overall_avg_mshr_miss_latency::.cpu.data 58823.703704                       # average overall mshr miss latency
system.l2cache.overall_avg_mshr_miss_latency::.cpu.dcache.prefetcher 63936.468750                       # average overall mshr miss latency
system.l2cache.overall_avg_mshr_miss_latency::total 61054.907543                       # average overall mshr miss latency
system.l2cache.replacements                       423                       # number of replacements
system.l2cache.WritebackDirty_hits::.writebacks          137                       # number of WritebackDirty hits
system.l2cache.WritebackDirty_hits::total          137                       # number of WritebackDirty hits
system.l2cache.WritebackDirty_accesses::.writebacks          137                       # number of WritebackDirty accesses(hits+misses)
system.l2cache.WritebackDirty_accesses::total          137                       # number of WritebackDirty accesses(hits+misses)
system.l2cache.CleanEvict_mshr_misses::.writebacks           10                       # number of CleanEvict MSHR misses
system.l2cache.CleanEvict_mshr_misses::total           10                       # number of CleanEvict MSHR misses
system.l2cache.CleanEvict_mshr_miss_rate::.writebacks          inf                       # mshr miss rate for CleanEvict accesses
system.l2cache.CleanEvict_mshr_miss_rate::total          inf                       # mshr miss rate for CleanEvict accesses
system.l2cache.ReadExReq_hits::.cpu.data           36                       # number of ReadExReq hits
system.l2cache.ReadExReq_hits::total               36                       # number of ReadExReq hits
system.l2cache.ReadExReq_misses::.cpu.data           19                       # number of ReadExReq misses
system.l2cache.ReadExReq_misses::total             19                       # number of ReadExReq misses
system.l2cache.ReadExReq_miss_latency::.cpu.data      1278000                       # number of ReadExReq miss cycles
system.l2cache.ReadExReq_miss_latency::total      1278000                       # number of ReadExReq miss cycles
system.l2cache.ReadExReq_accesses::.cpu.data           55                       # number of ReadExReq accesses(hits+misses)
system.l2cache.ReadExReq_accesses::total           55                       # number of ReadExReq accesses(hits+misses)
system.l2cache.ReadExReq_miss_rate::.cpu.data     0.345455                       # miss rate for ReadExReq accesses
system.l2cache.ReadExReq_miss_rate::total     0.345455                       # miss rate for ReadExReq accesses
system.l2cache.ReadExReq_avg_miss_latency::.cpu.data 67263.157895                       # average ReadExReq miss latency
system.l2cache.ReadExReq_avg_miss_latency::total 67263.157895                       # average ReadExReq miss latency
system.l2cache.ReadExReq_mshr_misses::.cpu.data           19                       # number of ReadExReq MSHR misses
system.l2cache.ReadExReq_mshr_misses::total           19                       # number of ReadExReq MSHR misses
system.l2cache.ReadExReq_mshr_miss_latency::.cpu.data      1126000                       # number of ReadExReq MSHR miss cycles
system.l2cache.ReadExReq_mshr_miss_latency::total      1126000                       # number of ReadExReq MSHR miss cycles
system.l2cache.ReadExReq_mshr_miss_rate::.cpu.data     0.345455                       # mshr miss rate for ReadExReq accesses
system.l2cache.ReadExReq_mshr_miss_rate::total     0.345455                       # mshr miss rate for ReadExReq accesses
system.l2cache.ReadExReq_avg_mshr_miss_latency::.cpu.data 59263.157895                       # average ReadExReq mshr miss latency
system.l2cache.ReadExReq_avg_mshr_miss_latency::total 59263.157895                       # average ReadExReq mshr miss latency
system.l2cache.ReadSharedReq_hits::.cpu.inst         1350                       # number of ReadSharedReq hits
system.l2cache.ReadSharedReq_hits::.cpu.data          132                       # number of ReadSharedReq hits
system.l2cache.ReadSharedReq_hits::.cpu.dcache.prefetcher            7                       # number of ReadSharedReq hits
system.l2cache.ReadSharedReq_hits::total         1489                       # number of ReadSharedReq hits
system.l2cache.ReadSharedReq_misses::.cpu.inst          244                       # number of ReadSharedReq misses
system.l2cache.ReadSharedReq_misses::.cpu.data          116                       # number of ReadSharedReq misses
system.l2cache.ReadSharedReq_misses::.cpu.dcache.prefetcher           32                       # number of ReadSharedReq misses
system.l2cache.ReadSharedReq_misses::total          392                       # number of ReadSharedReq misses
system.l2cache.ReadSharedReq_miss_latency::.cpu.inst     17058400                       # number of ReadSharedReq miss cycles
system.l2cache.ReadSharedReq_miss_latency::.cpu.data      7743200                       # number of ReadSharedReq miss cycles
system.l2cache.ReadSharedReq_miss_latency::.cpu.dcache.prefetcher      2301967                       # number of ReadSharedReq miss cycles
system.l2cache.ReadSharedReq_miss_latency::total     27103567                       # number of ReadSharedReq miss cycles
system.l2cache.ReadSharedReq_accesses::.cpu.inst         1594                       # number of ReadSharedReq accesses(hits+misses)
system.l2cache.ReadSharedReq_accesses::.cpu.data          248                       # number of ReadSharedReq accesses(hits+misses)
system.l2cache.ReadSharedReq_accesses::.cpu.dcache.prefetcher           39                       # number of ReadSharedReq accesses(hits+misses)
system.l2cache.ReadSharedReq_accesses::total         1881                       # number of ReadSharedReq accesses(hits+misses)
system.l2cache.ReadSharedReq_miss_rate::.cpu.inst     0.153074                       # miss rate for ReadSharedReq accesses
system.l2cache.ReadSharedReq_miss_rate::.cpu.data     0.467742                       # miss rate for ReadSharedReq accesses
system.l2cache.ReadSharedReq_miss_rate::.cpu.dcache.prefetcher     0.820513                       # miss rate for ReadSharedReq accesses
system.l2cache.ReadSharedReq_miss_rate::total     0.208400                       # miss rate for ReadSharedReq accesses
system.l2cache.ReadSharedReq_avg_miss_latency::.cpu.inst 69911.475410                       # average ReadSharedReq miss latency
system.l2cache.ReadSharedReq_avg_miss_latency::.cpu.data 66751.724138                       # average ReadSharedReq miss latency
system.l2cache.ReadSharedReq_avg_miss_latency::.cpu.dcache.prefetcher 71936.468750                       # average ReadSharedReq miss latency
system.l2cache.ReadSharedReq_avg_miss_latency::total 69141.752551                       # average ReadSharedReq miss latency
system.l2cache.ReadSharedReq_mshr_misses::.cpu.inst          244                       # number of ReadSharedReq MSHR misses
system.l2cache.ReadSharedReq_mshr_misses::.cpu.data          116                       # number of ReadSharedReq MSHR misses
system.l2cache.ReadSharedReq_mshr_misses::.cpu.dcache.prefetcher           32                       # number of ReadSharedReq MSHR misses
system.l2cache.ReadSharedReq_mshr_misses::total          392                       # number of ReadSharedReq MSHR misses
system.l2cache.ReadSharedReq_mshr_miss_latency::.cpu.inst     15106400                       # number of ReadSharedReq MSHR miss cycles
system.l2cache.ReadSharedReq_mshr_miss_latency::.cpu.data      6815200                       # number of ReadSharedReq MSHR miss cycles
system.l2cache.ReadSharedReq_mshr_miss_latency::.cpu.dcache.prefetcher      2045967                       # number of ReadSharedReq MSHR miss cycles
system.l2cache.ReadSharedReq_mshr_miss_latency::total     23967567                       # number of ReadSharedReq MSHR miss cycles
system.l2cache.ReadSharedReq_mshr_miss_rate::.cpu.inst     0.153074                       # mshr miss rate for ReadSharedReq accesses
system.l2cache.ReadSharedReq_mshr_miss_rate::.cpu.data     0.467742                       # mshr miss rate for ReadSharedReq accesses
system.l2cache.ReadSharedReq_mshr_miss_rate::.cpu.dcache.prefetcher     0.820513                       # mshr miss rate for ReadSharedReq accesses
system.l2cache.ReadSharedReq_mshr_miss_rate::total     0.208400                       # mshr miss rate for ReadSharedReq accesses
system.l2cache.ReadSharedReq_avg_mshr_miss_latency::.cpu.inst 61911.475410                       # average ReadSharedReq mshr miss latency
system.l2cache.ReadSharedReq_avg_mshr_miss_latency::.cpu.data 58751.724138                       # average ReadSharedReq mshr miss latency
system.l2cache.ReadSharedReq_avg_mshr_miss_latency::.cpu.dcache.prefetcher 63936.468750                       # average ReadSharedReq mshr miss latency
system.l2cache.ReadSharedReq_avg_mshr_miss_latency::total 61141.752551                       # average ReadSharedReq mshr miss latency
system.l2cache.prefetcher.pwrStateResidencyTicks::UNDEFINED    222259600                       # Cumulative time (in ticks) in various power states
system.l2cache.tags.pwrStateResidencyTicks::UNDEFINED    222259600                       # Cumulative time (in ticks) in various power states
system.l2cache.tags.tagsinuse                    4096                       # Cycle average of tags in use
system.l2cache.tags.total_refs                  18257                       # Total number of references to valid blocks.
system.l2cache.tags.sampled_refs                 4519                       # Sample count of references to valid blocks.
system.l2cache.tags.avg_refs                 4.040053                       # Average number of references to valid blocks.
system.l2cache.tags.warmup_cycle                    0                       # Cycle when the warmup percentage was hit.
system.l2cache.tags.occ_blocks::.writebacks    43.895731                       # Average occupied blocks per requestor
system.l2cache.tags.occ_blocks::.cpu.inst  1128.208578                       # Average occupied blocks per requestor
system.l2cache.tags.occ_blocks::.cpu.data  1841.987470                       # Average occupied blocks per requestor
system.l2cache.tags.occ_blocks::.cpu.dcache.prefetcher   966.922071                       # Average occupied blocks per requestor
system.l2cache.tags.occ_blocks::.l2cache.prefetcher   114.986150                       # Average occupied blocks per requestor
system.l2cache.tags.occ_percent::.writebacks     0.010717                       # Average percentage of cache occupancy
system.l2cache.tags.occ_percent::.cpu.inst     0.275442                       # Average percentage of cache occupancy
system.l2cache.tags.occ_percent::.cpu.data     0.449704                       # Average percentage of cache occupancy
system.l2cache.tags.occ_percent::.cpu.dcache.prefetcher     0.236065                       # Average percentage of cache occupancy
system.l2cache.tags.occ_percent::.l2cache.prefetcher     0.028073                       # Average percentage of cache occupancy
system.l2cache.tags.occ_percent::total              1                       # Average percentage of cache occupancy
system.l2cache.tags.occ_task_id_blocks::1022         1002                       # Occupied blocks per task id
system.l2cache.tags.occ_task_id_blocks::1024         3094                       # Occupied blocks per task id
system.l2cache.tags.age_task_id_blocks_1022::0            5                       # Occupied blocks per task id
system.l2cache.tags.age_task_id_blocks_1022::1            3                       # Occupied blocks per task id
system.l2cache.tags.age_task_id_blocks_1022::2           35                       # Occupied blocks per task id
system.l2cache.tags.age_task_id_blocks_1022::3          959                       # Occupied blocks per task id
system.l2cache.tags.age_task_id_blocks_1024::0          162                       # Occupied blocks per task id
system.l2cache.tags.age_task_id_blocks_1024::1          112                       # Occupied blocks per task id
system.l2cache.tags.age_task_id_blocks_1024::2          229                       # Occupied blocks per task id
system.l2cache.tags.age_task_id_blocks_1024::3         2591                       # Occupied blocks per task id
system.l2cache.tags.occ_task_id_percent::1022     0.244629                       # Percentage of cache occupancy per task id
system.l2cache.tags.occ_task_id_percent::1024     0.755371                       # Percentage of cache occupancy per task id
system.l2cache.tags.tag_accesses                31399                       # Number of tag accesses
system.l2cache.tags.data_accesses               31399                       # Number of data accesses
system.mem_ctrl.pwrStateResidencyTicks::UNDEFINED    222259600                       # Cumulative time (in ticks) in various power states
system.mem_ctrl.bytes_read::.cpu.inst           15616                       # Number of bytes read from this memory
system.mem_ctrl.bytes_read::.cpu.data            8640                       # Number of bytes read from this memory
system.mem_ctrl.bytes_read::.cpu.dcache.prefetcher         2048                       # Number of bytes read from this memory
system.mem_ctrl.bytes_read::total               26304                       # Number of bytes read from this memory
system.mem_ctrl.bytes_inst_read::.cpu.inst        15616                       # Number of instructions bytes read from this memory
system.mem_ctrl.bytes_inst_read::total          15616                       # Number of instructions bytes read from this memory
system.mem_ctrl.bytes_written::.writebacks         1920                       # Number of bytes written to this memory
system.mem_ctrl.bytes_written::total             1920                       # Number of bytes written to this memory
system.mem_ctrl.num_reads::.cpu.inst              244                       # Number of read requests responded to by this memory
system.mem_ctrl.num_reads::.cpu.data              135                       # Number of read requests responded to by this memory
system.mem_ctrl.num_reads::.cpu.dcache.prefetcher           32                       # Number of read requests responded to by this memory
system.mem_ctrl.num_reads::total                  411                       # Number of read requests responded to by this memory
system.mem_ctrl.num_writes::.writebacks            30                       # Number of write requests responded to by this memory
system.mem_ctrl.num_writes::total                  30                       # Number of write requests responded to by this memory
system.mem_ctrl.bw_read::.cpu.inst           70260182                       # Total read bandwidth from this memory (bytes/s)
system.mem_ctrl.bw_read::.cpu.data           38873461                       # Total read bandwidth from this memory (bytes/s)
system.mem_ctrl.bw_read::.cpu.dcache.prefetcher      9214450                       # Total read bandwidth from this memory (bytes/s)
system.mem_ctrl.bw_read::total              118348094                       # Total read bandwidth from this memory (bytes/s)
system.mem_ctrl.bw_inst_read::.cpu.inst      70260182                       # Instruction read bandwidth from this memory (bytes/s)
system.mem_ctrl.bw_inst_read::total          70260182                       # Instruction read bandwidth from this memory (bytes/s)
system.mem_ctrl.bw_write::.writebacks         8638547                       # Write bandwidth from this memory (bytes/s)
system.mem_ctrl.bw_write::total               8638547                       # Write bandwidth from this memory (bytes/s)
system.mem_ctrl.bw_total::.writebacks         8638547                       # Total bandwidth to/from this memory (bytes/s)
system.mem_ctrl.bw_total::.cpu.inst          70260182                       # Total bandwidth to/from this memory (bytes/s)
system.mem_ctrl.bw_total::.cpu.data          38873461                       # Total bandwidth to/from this memory (bytes/s)
system.mem_ctrl.bw_total::.cpu.dcache.prefetcher      9214450                       # Total bandwidth to/from this memory (bytes/s)
system.mem_ctrl.bw_total::total             126986641                       # Total bandwidth to/from this memory (bytes/s)

---------- End Simulation Statistics   ----------
