
---------- Begin Simulation Statistics ----------
final_tick                               129346670400                       # Number of ticks from beginning of simulation (restored from checkpoints and never reset)
host_inst_rate                                 286701                       # Simulator instruction rate (inst/s)
host_mem_usage                                4407896                       # Number of bytes of host memory used
host_op_rate                                   628012                       # Simulator op (including micro ops) rate (op/s)
host_seconds                                  1852.79                       # Real time elapsed on the host
host_tick_rate                               69811680                       # Simulator tick rate (ticks/s)
sim_freq                                 1000000000000                       # Frequency of simulated ticks
sim_insts                                   531197648                       # Number of instructions simulated
sim_ops                                    1163576925                       # Number of ops (including micro ops) simulated
sim_seconds                                  0.129347                       # Number of seconds simulated
sim_ticks                                129346670400                       # Number of ticks simulated
system.cpu.branchPred.BTBCorrect                    0                       # Number of correct BTB predictions (this stat may not work properly.
system.cpu.branchPred.BTBHitPct              0.000000                       # BTB Hit Percentage
system.cpu.branchPred.BTBHits                       0                       # Number of BTB hits
system.cpu.branchPred.BTBLookups            106067086                       # Number of BTB lookups
system.cpu.branchPred.RASInCorrect                  8                       # Number of incorrect RAS predictions.
system.cpu.branchPred.condIncorrect            115826                       # Number of conditional branches incorrect
system.cpu.branchPred.condPredicted         209109076                       # Number of conditional branches predicted
system.cpu.branchPred.indirectHits          104649892                       # Number of indirect target hits.
system.cpu.branchPred.indirectLookups       106067086                       # Number of indirect predictor lookups.
system.cpu.branchPred.indirectMisses          1417194                       # Number of indirect misses.
system.cpu.branchPred.lookups               209655717                       # Number of BP lookups
system.cpu.branchPred.usedRAS                  272271                       # Number of times the RAS was used to get a target.
system.cpu.branchPredindirectMispredicted        46217                       # Number of mispredicted indirect branches.
system.cpu.cc_regfile_reads                1047825753                       # number of cc regfile reads
system.cpu.cc_regfile_writes                629577916                       # number of cc regfile writes
system.cpu.commit.amos                              0                       # Number of atomic instructions committed
system.cpu.commit.branchMispredicts            115923                       # The number of times a branch was mispredicted
system.cpu.commit.branches                  209065683                       # Number of branches committed
system.cpu.commit.bw_lim_events             212335245                       # number cycles where commit BW limit reached
system.cpu.commit.commitNonSpecStalls             799                       # The number of times commit has been forced to stall to communicate backwards
system.cpu.commit.commitSquashedInsts         2632455                       # The number of squashed insts skipped by commit
system.cpu.commit.committedInsts            531197648                       # Number of instructions committed
system.cpu.commit.committedOps             1163576925                       # Number of ops (including micro ops) committed
system.cpu.commit.committed_per_cycle::samples    322474575                       # Number of insts commited each cycle
system.cpu.commit.committed_per_cycle::mean     3.608275                       # Number of insts commited each cycle
system.cpu.commit.committed_per_cycle::stdev     0.639959                       # Number of insts commited each cycle
system.cpu.commit.committed_per_cycle::underflows            0      0.00%      0.00% # Number of insts commited each cycle
system.cpu.commit.committed_per_cycle::0      2911869      0.90%      0.90% # Number of insts commited each cycle
system.cpu.commit.committed_per_cycle::1      2697531      0.84%      1.74% # Number of insts commited each cycle
system.cpu.commit.committed_per_cycle::2      2051376      0.64%      2.38% # Number of insts commited each cycle
system.cpu.commit.committed_per_cycle::3    102478554     31.78%     34.15% # Number of insts commited each cycle
system.cpu.commit.committed_per_cycle::4    212335245     65.85%    100.00% # Number of insts commited each cycle
system.cpu.commit.committed_per_cycle::overflows            0      0.00%    100.00% # Number of insts commited each cycle
system.cpu.commit.committed_per_cycle::min_value            0                       # Number of insts commited each cycle
system.cpu.commit.committed_per_cycle::max_value            4                       # Number of insts commited each cycle
system.cpu.commit.committed_per_cycle::total    322474575                       # Number of insts commited each cycle
system.cpu.commit.fp_insts                    1073336                       # Number of committed floating point instructions.
system.cpu.commit.function_calls               262317                       # Number of function calls committed.
system.cpu.commit.int_insts                1162675286                       # Number of committed integer instructions.
system.cpu.commit.loads                     106577498                       # Number of loads committed
system.cpu.commit.membars                           1                       # Number of memory barriers committed
system.cpu.commit.op_class_0::No_OpClass       128875      0.01%      0.01% # Class of committed instruction
system.cpu.commit.op_class_0::IntAlu       1053652273     90.55%     90.56% # Class of committed instruction
system.cpu.commit.op_class_0::IntMult          161160      0.01%     90.58% # Class of committed instruction
system.cpu.commit.op_class_0::IntDiv            38058      0.00%     90.58% # Class of committed instruction
system.cpu.commit.op_class_0::FloatAdd          38971      0.00%     90.58% # Class of committed instruction
system.cpu.commit.op_class_0::FloatCmp              0      0.00%     90.58% # Class of committed instruction
system.cpu.commit.op_class_0::FloatCvt           1280      0.00%     90.58% # Class of committed instruction
system.cpu.commit.op_class_0::FloatMult             0      0.00%     90.58% # Class of committed instruction
system.cpu.commit.op_class_0::FloatMultAcc            0      0.00%     90.58% # Class of committed instruction
system.cpu.commit.op_class_0::FloatDiv              0      0.00%     90.58% # Class of committed instruction
system.cpu.commit.op_class_0::FloatMisc             0      0.00%     90.58% # Class of committed instruction
system.cpu.commit.op_class_0::FloatSqrt             0      0.00%     90.58% # Class of committed instruction
system.cpu.commit.op_class_0::SimdAdd            6268      0.00%     90.59% # Class of committed instruction
system.cpu.commit.op_class_0::SimdAddAcc            0      0.00%     90.59% # Class of committed instruction
system.cpu.commit.op_class_0::SimdAlu          227266      0.02%     90.60% # Class of committed instruction
system.cpu.commit.op_class_0::SimdCmp               0      0.00%     90.60% # Class of committed instruction
system.cpu.commit.op_class_0::SimdCvt          174238      0.01%     90.62% # Class of committed instruction
system.cpu.commit.op_class_0::SimdMisc         348631      0.03%     90.65% # Class of committed instruction
system.cpu.commit.op_class_0::SimdMult              0      0.00%     90.65% # Class of committed instruction
system.cpu.commit.op_class_0::SimdMultAcc            0      0.00%     90.65% # Class of committed instruction
system.cpu.commit.op_class_0::SimdShift          1144      0.00%     90.65% # Class of committed instruction
system.cpu.commit.op_class_0::SimdShiftAcc            0      0.00%     90.65% # Class of committed instruction
system.cpu.commit.op_class_0::SimdDiv               0      0.00%     90.65% # Class of committed instruction
system.cpu.commit.op_class_0::SimdSqrt              0      0.00%     90.65% # Class of committed instruction
system.cpu.commit.op_class_0::SimdFloatAdd            0      0.00%     90.65% # Class of committed instruction
system.cpu.commit.op_class_0::SimdFloatAlu            0      0.00%     90.65% # Class of committed instruction
system.cpu.commit.op_class_0::SimdFloatCmp            0      0.00%     90.65% # Class of committed instruction
system.cpu.commit.op_class_0::SimdFloatCvt            0      0.00%     90.65% # Class of committed instruction
system.cpu.commit.op_class_0::SimdFloatDiv            0      0.00%     90.65% # Class of committed instruction
system.cpu.commit.op_class_0::SimdFloatMisc            0      0.00%     90.65% # Class of committed instruction
system.cpu.commit.op_class_0::SimdFloatMult            0      0.00%     90.65% # Class of committed instruction
system.cpu.commit.op_class_0::SimdFloatMultAcc            0      0.00%     90.65% # Class of committed instruction
system.cpu.commit.op_class_0::SimdFloatSqrt            0      0.00%     90.65% # Class of committed instruction
system.cpu.commit.op_class_0::SimdReduceAdd            0      0.00%     90.65% # Class of committed instruction
system.cpu.commit.op_class_0::SimdReduceAlu            0      0.00%     90.65% # Class of committed instruction
system.cpu.commit.op_class_0::SimdReduceCmp            0      0.00%     90.65% # Class of committed instruction
system.cpu.commit.op_class_0::SimdFloatReduceAdd            0      0.00%     90.65% # Class of committed instruction
system.cpu.commit.op_class_0::SimdFloatReduceCmp            0      0.00%     90.65% # Class of committed instruction
system.cpu.commit.op_class_0::SimdAes               0      0.00%     90.65% # Class of committed instruction
system.cpu.commit.op_class_0::SimdAesMix            0      0.00%     90.65% # Class of committed instruction
system.cpu.commit.op_class_0::SimdSha1Hash            0      0.00%     90.65% # Class of committed instruction
system.cpu.commit.op_class_0::SimdSha1Hash2            0      0.00%     90.65% # Class of committed instruction
system.cpu.commit.op_class_0::SimdSha256Hash            0      0.00%     90.65% # Class of committed instruction
system.cpu.commit.op_class_0::SimdSha256Hash2            0      0.00%     90.65% # Class of committed instruction
system.cpu.commit.op_class_0::SimdShaSigma2            0      0.00%     90.65% # Class of committed instruction
system.cpu.commit.op_class_0::SimdShaSigma3            0      0.00%     90.65% # Class of committed instruction
system.cpu.commit.op_class_0::SimdPredAlu            0      0.00%     90.65% # Class of committed instruction
system.cpu.commit.op_class_0::MemRead       106450084      9.15%     99.80% # Class of committed instruction
system.cpu.commit.op_class_0::MemWrite        2181966      0.19%     99.99% # Class of committed instruction
system.cpu.commit.op_class_0::FloatMemRead       127414      0.01%    100.00% # Class of committed instruction
system.cpu.commit.op_class_0::FloatMemWrite        39297      0.00%    100.00% # Class of committed instruction
system.cpu.commit.op_class_0::IprAccess             0      0.00%    100.00% # Class of committed instruction
system.cpu.commit.op_class_0::InstPrefetch            0      0.00%    100.00% # Class of committed instruction
system.cpu.commit.op_class_0::total        1163576925                       # Class of committed instruction
system.cpu.commit.refs                      108798761                       # Number of memory references committed
system.cpu.commit.swp_count                         0                       # Number of s/w prefetches committed
system.cpu.commit.vec_insts                         0                       # Number of committed Vector instructions.
system.cpu.committedInsts                   531197648                       # Number of Instructions Simulated
system.cpu.committedOps                    1163576925                       # Number of Ops (including micro ops) Simulated
system.cpu.cpi                               0.608750                       # CPI: Cycles Per Instruction
system.cpu.cpi_total                         0.608750                       # CPI: Total CPI of All Threads
system.cpu.dcache.prefetcher.num_hwpf_issued        11320                       # number of hwpf issued
system.cpu.dcache.prefetcher.pfBufferHit        33536                       # number of redundant prefetches already in prefetch queue
system.cpu.dcache.prefetcher.pfIdentified        52596                       # number of prefetch candidates identified
system.cpu.dcache.prefetcher.pfInCache              0                       # number of redundant prefetches already in cache/mshr dropped
system.cpu.dcache.prefetcher.pfRemovedFull            0                       # number of prefetches dropped due to prefetch queue size
system.cpu.dcache.prefetcher.pfSpanPage          4996                       # number of prefetches that crossed the page
system.cpu.decode.BlockedCycles               1750758                       # Number of cycles decode is blocked
system.cpu.decode.DecodedInsts             1167300750                       # Number of instructions handled by decode
system.cpu.decode.IdleCycles                  2845624                       # Number of cycles decode is idle
system.cpu.decode.RunCycles                 318202059                       # Number of cycles decode is running
system.cpu.decode.SquashCycles                 116064                       # Number of cycles decode is squashing
system.cpu.decode.UnblockCycles                280965                       # Number of cycles decode is unblocking
system.cpu.dtb.rdAccesses                   106793993                       # TLB accesses on read requests
system.cpu.dtb.rdMisses                          2171                       # TLB misses on read requests
system.cpu.dtb.wrAccesses                     2260065                       # TLB accesses on write requests
system.cpu.dtb.wrMisses                           181                       # TLB misses on write requests
system.cpu.fetch.Branches                   209655717                       # Number of branches that fetch encountered
system.cpu.fetch.CacheLines                   2667481                       # Number of cache lines fetched
system.cpu.fetch.Cycles                     320234373                       # Number of cycles fetch has run and was not squashing or blocked
system.cpu.fetch.IcacheSquashes                  8696                       # Number of outstanding Icache misses that were squashed
system.cpu.fetch.Insts                      533405540                       # Number of instructions fetch has processed
system.cpu.fetch.MiscStallCycles                  144                       # Number of cycles fetch has spent waiting on interrupts, or bad addresses, or out of MSHRs
system.cpu.fetch.PendingQuiesceStallCycles            6                       # Number of stall cycles due to pending quiesce instructions
system.cpu.fetch.PendingTrapStallCycles           646                       # Number of stall cycles due to pending traps
system.cpu.fetch.SquashCycles                  232128                       # Number of cycles fetch has spent squashing
system.cpu.fetch.branchRate                  0.648353                       # Number of branch fetches per cycle
system.cpu.fetch.icacheStallCycles            2844237                       # Number of cycles fetch is stalled on an Icache miss
system.cpu.fetch.predictedBranches          104922163                       # Number of branches that fetch has predicted taken
system.cpu.fetch.rate                        1.649538                       # Number of inst fetches per cycle
system.cpu.fetch.rateDist::samples          323195470                       # Number of instructions fetched each cycle (Total)
system.cpu.fetch.rateDist::mean              3.613574                       # Number of instructions fetched each cycle (Total)
system.cpu.fetch.rateDist::stdev             0.647598                       # Number of instructions fetched each cycle (Total)
system.cpu.fetch.rateDist::underflows               0      0.00%      0.00% # Number of instructions fetched each cycle (Total)
system.cpu.fetch.rateDist::0                  4344612      1.34%      1.34% # Number of instructions fetched each cycle (Total)
system.cpu.fetch.rateDist::1                   970348      0.30%      1.64% # Number of instructions fetched each cycle (Total)
system.cpu.fetch.rateDist::2                   477712      0.15%      1.79% # Number of instructions fetched each cycle (Total)
system.cpu.fetch.rateDist::3                103646255     32.07%     33.86% # Number of instructions fetched each cycle (Total)
system.cpu.fetch.rateDist::4                213756543     66.14%    100.00% # Number of instructions fetched each cycle (Total)
system.cpu.fetch.rateDist::overflows                0      0.00%    100.00% # Number of instructions fetched each cycle (Total)
system.cpu.fetch.rateDist::min_value                0                       # Number of instructions fetched each cycle (Total)
system.cpu.fetch.rateDist::max_value                4                       # Number of instructions fetched each cycle (Total)
system.cpu.fetch.rateDist::total            323195470                       # Number of instructions fetched each cycle (Total)
system.cpu.fp_regfile_reads                   1839858                       # number of floating regfile reads
system.cpu.fp_regfile_writes                   948522                       # number of floating regfile writes
system.cpu.fuPool.fu_ticks_busy::IntALU(0)  70346424000                       # Total ticks fu was busy
system.cpu.fuPool.fu_ticks_busy::IntALU(1)  70346424000                       # Total ticks fu was busy
system.cpu.fuPool.fu_ticks_busy::IntALU(2)  70346424000                       # Total ticks fu was busy
system.cpu.fuPool.fu_ticks_busy::IntALU(3)  70346424000                       # Total ticks fu was busy
system.cpu.fuPool.fu_ticks_busy::IntALU(4)  70346424000                       # Total ticks fu was busy
system.cpu.fuPool.fu_ticks_busy::IntALU(5)  70346424000                       # Total ticks fu was busy
system.cpu.fuPool.fu_ticks_busy::IntMultDiv(0)     40668800                       # Total ticks fu was busy
system.cpu.fuPool.fu_ticks_busy::IntMultDiv(1)     40668400                       # Total ticks fu was busy
system.cpu.fuPool.fu_ticks_busy::FP_ALU(0)      4184000                       # Total ticks fu was busy
system.cpu.fuPool.fu_ticks_busy::FP_ALU(1)      4183600                       # Total ticks fu was busy
system.cpu.fuPool.fu_ticks_busy::FP_ALU(2)      4183200                       # Total ticks fu was busy
system.cpu.fuPool.fu_ticks_busy::FP_ALU(3)      4183200                       # Total ticks fu was busy
system.cpu.fuPool.fu_ticks_busy::FP_MultDiv(0)            0                       # Total ticks fu was busy
system.cpu.fuPool.fu_ticks_busy::FP_MultDiv(1)            0                       # Total ticks fu was busy
system.cpu.fuPool.fu_ticks_busy::SIMD_Unit(0)     77654800                       # Total ticks fu was busy
system.cpu.fuPool.fu_ticks_busy::SIMD_Unit(1)     75480400                       # Total ticks fu was busy
system.cpu.fuPool.fu_ticks_busy::SIMD_Unit(2)     77401600                       # Total ticks fu was busy
system.cpu.fuPool.fu_ticks_busy::SIMD_Unit(3)     75552800                       # Total ticks fu was busy
system.cpu.fuPool.fu_ticks_busy::PredALU(0)            0                       # Total ticks fu was busy
system.cpu.fuPool.fu_ticks_busy::RdWrPort(0)  10911280400                       # Total ticks fu was busy
system.cpu.fuPool.fu_ticks_busy::RdWrPort(1)  10910959200                       # Total ticks fu was busy
system.cpu.fuPool.fu_ticks_busy::RdWrPort(2)  10911215200                       # Total ticks fu was busy
system.cpu.fuPool.fu_ticks_busy::RdWrPort(3)  10910891200                       # Total ticks fu was busy
system.cpu.fuPool.fu_ticks_busy::IprPort(0)            0                       # Total ticks fu was busy
system.cpu.fuPool.fu_ticks_busy::total   466127050800                       # Total ticks fu was busy
system.cpu.icache.prefetcher.num_hwpf_issued            0                       # number of hwpf issued
system.cpu.icache.prefetcher.pfBufferHit            0                       # number of redundant prefetches already in prefetch queue
system.cpu.icache.prefetcher.pfIdentified            0                       # number of prefetch candidates identified
system.cpu.icache.prefetcher.pfInCache              0                       # number of redundant prefetches already in cache/mshr dropped
system.cpu.icache.prefetcher.pfRemovedFull            0                       # number of prefetches dropped due to prefetch queue size
system.cpu.icache.prefetcher.pfSpanPage             0                       # number of prefetches that crossed the page
system.cpu.idleCycles                          171207                       # Total number of cycles that the CPU has spent unscheduled due to idling
system.cpu.iew.branchMispredicts               134666                       # Number of branch mispredicts detected at execute
system.cpu.iew.exec_branches                209203656                       # Number of branches executed
system.cpu.iew.exec_nop                             0                       # number of nop insts executed
system.cpu.iew.exec_rate                     3.603415                       # Inst execution rate
system.cpu.iew.exec_refs                    109031306                       # number of memory reference insts executed
system.cpu.iew.exec_stores                    2256582                       # Number of stores executed
system.cpu.iew.exec_swp                             0                       # number of swp insts executed
system.cpu.iew.iewBlockCycles                 1084886                       # Number of cycles IEW is blocking
system.cpu.iew.iewDispLoadInsts             106884236                       # Number of dispatched load instructions
system.cpu.iew.iewDispNonSpecInsts               2031                       # Number of dispatched non-speculative instructions
system.cpu.iew.iewDispSquashedInsts              5441                       # Number of squashed instructions skipped by dispatch
system.cpu.iew.iewDispStoreInsts              2308085                       # Number of dispatched store instructions
system.cpu.iew.iewDispatchedInsts          1166209331                       # Number of instructions dispatched to IQ
system.cpu.iew.iewExecLoadInsts             106774724                       # Number of load instructions executed
system.cpu.iew.iewExecSquashedInsts            237215                       # Number of squashed instructions skipped in execute
system.cpu.iew.iewExecutedInsts            1165224174                       # Number of executed instructions
system.cpu.iew.iewIQFullEvents                   3340                       # Number of times the IQ has become full, causing a stall
system.cpu.iew.iewIdleCycles                        0                       # Number of cycles IEW is idle
system.cpu.iew.iewLSQFullEvents                 32418                       # Number of times the LSQ has become full, causing a stall
system.cpu.iew.iewSquashCycles                 116064                       # Number of cycles IEW is squashing
system.cpu.iew.iewUnblockCycles                 38753                       # Number of cycles IEW is unblocking
system.cpu.iew.lsq.thread0.blockedLoads             0                       # Number of blocked loads due to partial load-store forwarding
system.cpu.iew.lsq.thread0.cacheBlocked           608                       # Number of times an access to memory failed due to the cache being blocked
system.cpu.iew.lsq.thread0.forwLoads           152246                       # Number of loads that had data forwarded from stores
system.cpu.iew.lsq.thread0.ignoredResponses          298                       # Number of memory responses ignored because the instruction is squashed
system.cpu.iew.lsq.thread0.invAddrLoads             0                       # Number of loads ignored due to an invalid address
system.cpu.iew.lsq.thread0.invAddrSwpfs             0                       # Number of software prefetches ignored due to an invalid address
system.cpu.iew.lsq.thread0.memOrderViolation          161                       # Number of memory ordering violations
system.cpu.iew.lsq.thread0.rescheduledLoads           99                       # Number of loads that were rescheduled
system.cpu.iew.lsq.thread0.squashedLoads       306736                       # Number of loads squashed
system.cpu.iew.lsq.thread0.squashedStores        86821                       # Number of stores squashed
system.cpu.iew.memOrderViolationEvents            161                       # Number of memory order violations
system.cpu.iew.predictedNotTakenIncorrect       106153                       # Number of branches that were predicted not taken incorrectly
system.cpu.iew.predictedTakenIncorrect          28513                       # Number of branches that were predicted taken incorrectly
system.cpu.iew.wb_consumers                1276091908                       # num instructions consuming a value
system.cpu.iew.wb_count                    1165165658                       # cumulative count of insts written-back
system.cpu.iew.wb_fanout                     0.744660                       # average fanout of values written-back
system.cpu.iew.wb_producers                 950255120                       # num instructions producing a value
system.cpu.iew.wb_rate                       3.603234                       # insts written-back per cycle
system.cpu.iew.wb_sent                     1165182883                       # cumulative count of insts sent to commit
system.cpu.int_regfile_reads               1285098464                       # number of integer regfile reads
system.cpu.int_regfile_writes               952933652                       # number of integer regfile writes
system.cpu.ipc                               1.642710                       # IPC: Instructions Per Cycle
system.cpu.ipc_total                         1.642710                       # IPC: Total IPC of All Threads
system.cpu.iq.FU_type_0::No_OpClass            143762      0.01%      0.01% # Type of FU issued
system.cpu.iq.FU_type_0::IntAlu            1055196361     90.54%     90.55% # Type of FU issued
system.cpu.iq.FU_type_0::IntMult               161269      0.01%     90.57% # Type of FU issued
system.cpu.iq.FU_type_0::IntDiv                 42074      0.00%     90.57% # Type of FU issued
system.cpu.iq.FU_type_0::FloatAdd               40526      0.00%     90.57% # Type of FU issued
system.cpu.iq.FU_type_0::FloatCmp                   0      0.00%     90.57% # Type of FU issued
system.cpu.iq.FU_type_0::FloatCvt                1309      0.00%     90.57% # Type of FU issued
system.cpu.iq.FU_type_0::FloatMult                  0      0.00%     90.57% # Type of FU issued
system.cpu.iq.FU_type_0::FloatMultAcc               0      0.00%     90.57% # Type of FU issued
system.cpu.iq.FU_type_0::FloatDiv                   0      0.00%     90.57% # Type of FU issued
system.cpu.iq.FU_type_0::FloatMisc                  0      0.00%     90.57% # Type of FU issued
system.cpu.iq.FU_type_0::FloatSqrt                  0      0.00%     90.57% # Type of FU issued
system.cpu.iq.FU_type_0::SimdAdd                 6900      0.00%     90.57% # Type of FU issued
system.cpu.iq.FU_type_0::SimdAddAcc                 0      0.00%     90.57% # Type of FU issued
system.cpu.iq.FU_type_0::SimdAlu               230894      0.02%     90.59% # Type of FU issued
system.cpu.iq.FU_type_0::SimdCmp                    0      0.00%     90.59% # Type of FU issued
system.cpu.iq.FU_type_0::SimdCvt               175984      0.02%     90.61% # Type of FU issued
system.cpu.iq.FU_type_0::SimdMisc              349206      0.03%     90.64% # Type of FU issued
system.cpu.iq.FU_type_0::SimdMult                   0      0.00%     90.64% # Type of FU issued
system.cpu.iq.FU_type_0::SimdMultAcc                0      0.00%     90.64% # Type of FU issued
system.cpu.iq.FU_type_0::SimdShift               2240      0.00%     90.64% # Type of FU issued
system.cpu.iq.FU_type_0::SimdShiftAcc               0      0.00%     90.64% # Type of FU issued
system.cpu.iq.FU_type_0::SimdDiv                    0      0.00%     90.64% # Type of FU issued
system.cpu.iq.FU_type_0::SimdSqrt                   0      0.00%     90.64% # Type of FU issued
system.cpu.iq.FU_type_0::SimdFloatAdd               0      0.00%     90.64% # Type of FU issued
system.cpu.iq.FU_type_0::SimdFloatAlu               0      0.00%     90.64% # Type of FU issued
system.cpu.iq.FU_type_0::SimdFloatCmp               0      0.00%     90.64% # Type of FU issued
system.cpu.iq.FU_type_0::SimdFloatCvt               0      0.00%     90.64% # Type of FU issued
system.cpu.iq.FU_type_0::SimdFloatDiv               0      0.00%     90.64% # Type of FU issued
system.cpu.iq.FU_type_0::SimdFloatMisc              0      0.00%     90.64% # Type of FU issued
system.cpu.iq.FU_type_0::SimdFloatMult              0      0.00%     90.64% # Type of FU issued
system.cpu.iq.FU_type_0::SimdFloatMultAcc            0      0.00%     90.64% # Type of FU issued
system.cpu.iq.FU_type_0::SimdFloatSqrt              0      0.00%     90.64% # Type of FU issued
system.cpu.iq.FU_type_0::SimdReduceAdd              0      0.00%     90.64% # Type of FU issued
system.cpu.iq.FU_type_0::SimdReduceAlu              0      0.00%     90.64% # Type of FU issued
system.cpu.iq.FU_type_0::SimdReduceCmp              0      0.00%     90.64% # Type of FU issued
system.cpu.iq.FU_type_0::SimdFloatReduceAdd            0      0.00%     90.64% # Type of FU issued
system.cpu.iq.FU_type_0::SimdFloatReduceCmp            0      0.00%     90.64% # Type of FU issued
system.cpu.iq.FU_type_0::SimdAes                    0      0.00%     90.64% # Type of FU issued
system.cpu.iq.FU_type_0::SimdAesMix                 0      0.00%     90.64% # Type of FU issued
system.cpu.iq.FU_type_0::SimdSha1Hash               0      0.00%     90.64% # Type of FU issued
system.cpu.iq.FU_type_0::SimdSha1Hash2              0      0.00%     90.64% # Type of FU issued
system.cpu.iq.FU_type_0::SimdSha256Hash             0      0.00%     90.64% # Type of FU issued
system.cpu.iq.FU_type_0::SimdSha256Hash2            0      0.00%     90.64% # Type of FU issued
system.cpu.iq.FU_type_0::SimdShaSigma2              0      0.00%     90.64% # Type of FU issued
system.cpu.iq.FU_type_0::SimdShaSigma3              0      0.00%     90.64% # Type of FU issued
system.cpu.iq.FU_type_0::SimdPredAlu                0      0.00%     90.64% # Type of FU issued
system.cpu.iq.FU_type_0::MemRead            106705133      9.16%     99.79% # Type of FU issued
system.cpu.iq.FU_type_0::MemWrite             2231329      0.19%     99.99% # Type of FU issued
system.cpu.iq.FU_type_0::FloatMemRead          133678      0.01%    100.00% # Type of FU issued
system.cpu.iq.FU_type_0::FloatMemWrite          40727      0.00%    100.00% # Type of FU issued
system.cpu.iq.FU_type_0::IprAccess                  0      0.00%    100.00% # Type of FU issued
system.cpu.iq.FU_type_0::InstPrefetch               0      0.00%    100.00% # Type of FU issued
system.cpu.iq.FU_type_0::total             1165461392                       # Type of FU issued
system.cpu.iq.fp_alu_accesses                 1090447                       # Number of floating point alu accesses
system.cpu.iq.fp_inst_queue_reads             2182323                       # Number of floating instruction queue reads
system.cpu.iq.fp_inst_queue_wakeup_accesses      1086602                       # Number of floating instruction queue wakeup accesses
system.cpu.iq.fp_inst_queue_writes            1132340                       # Number of floating instruction queue writes
system.cpu.iq.fu_busy_cnt                           0                       # FU busy when requested
system.cpu.iq.fu_busy_rate                          0                       # FU busy rate (busy events/executed inst)
system.cpu.iq.fu_full::No_OpClass                   0                       # attempts to use FU when none available
system.cpu.iq.fu_full::IntAlu                       0                       # attempts to use FU when none available
system.cpu.iq.fu_full::IntMult                      0                       # attempts to use FU when none available
system.cpu.iq.fu_full::IntDiv                       0                       # attempts to use FU when none available
system.cpu.iq.fu_full::FloatAdd                     0                       # attempts to use FU when none available
system.cpu.iq.fu_full::FloatCmp                     0                       # attempts to use FU when none available
system.cpu.iq.fu_full::FloatCvt                     0                       # attempts to use FU when none available
system.cpu.iq.fu_full::FloatMult                    0                       # attempts to use FU when none available
system.cpu.iq.fu_full::FloatMultAcc                 0                       # attempts to use FU when none available
system.cpu.iq.fu_full::FloatDiv                     0                       # attempts to use FU when none available
system.cpu.iq.fu_full::FloatMisc                    0                       # attempts to use FU when none available
system.cpu.iq.fu_full::FloatSqrt                    0                       # attempts to use FU when none available
system.cpu.iq.fu_full::SimdAdd                      0                       # attempts to use FU when none available
system.cpu.iq.fu_full::SimdAddAcc                   0                       # attempts to use FU when none available
system.cpu.iq.fu_full::SimdAlu                      0                       # attempts to use FU when none available
system.cpu.iq.fu_full::SimdCmp                      0                       # attempts to use FU when none available
system.cpu.iq.fu_full::SimdCvt                      0                       # attempts to use FU when none available
system.cpu.iq.fu_full::SimdMisc                     0                       # attempts to use FU when none available
system.cpu.iq.fu_full::SimdMult                     0                       # attempts to use FU when none available
system.cpu.iq.fu_full::SimdMultAcc                  0                       # attempts to use FU when none available
system.cpu.iq.fu_full::SimdShift                    0                       # attempts to use FU when none available
system.cpu.iq.fu_full::SimdShiftAcc                 0                       # attempts to use FU when none available
system.cpu.iq.fu_full::SimdDiv                      0                       # attempts to use FU when none available
system.cpu.iq.fu_full::SimdSqrt                     0                       # attempts to use FU when none available
system.cpu.iq.fu_full::SimdFloatAdd                 0                       # attempts to use FU when none available
system.cpu.iq.fu_full::SimdFloatAlu                 0                       # attempts to use FU when none available
system.cpu.iq.fu_full::SimdFloatCmp                 0                       # attempts to use FU when none available
system.cpu.iq.fu_full::SimdFloatCvt                 0                       # attempts to use FU when none available
system.cpu.iq.fu_full::SimdFloatDiv                 0                       # attempts to use FU when none available
system.cpu.iq.fu_full::SimdFloatMisc                0                       # attempts to use FU when none available
system.cpu.iq.fu_full::SimdFloatMult                0                       # attempts to use FU when none available
system.cpu.iq.fu_full::SimdFloatMultAcc             0                       # attempts to use FU when none available
system.cpu.iq.fu_full::SimdFloatSqrt                0                       # attempts to use FU when none available
system.cpu.iq.fu_full::SimdReduceAdd                0                       # attempts to use FU when none available
system.cpu.iq.fu_full::SimdReduceAlu                0                       # attempts to use FU when none available
system.cpu.iq.fu_full::SimdReduceCmp                0                       # attempts to use FU when none available
system.cpu.iq.fu_full::SimdFloatReduceAdd            0                       # attempts to use FU when none available
system.cpu.iq.fu_full::SimdFloatReduceCmp            0                       # attempts to use FU when none available
system.cpu.iq.fu_full::SimdAes                      0                       # attempts to use FU when none available
system.cpu.iq.fu_full::SimdAesMix                   0                       # attempts to use FU when none available
system.cpu.iq.fu_full::SimdSha1Hash                 0                       # attempts to use FU when none available
system.cpu.iq.fu_full::SimdSha1Hash2                0                       # attempts to use FU when none available
system.cpu.iq.fu_full::SimdSha256Hash               0                       # attempts to use FU when none available
system.cpu.iq.fu_full::SimdSha256Hash2              0                       # attempts to use FU when none available
system.cpu.iq.fu_full::SimdShaSigma2                0                       # attempts to use FU when none available
system.cpu.iq.fu_full::SimdShaSigma3                0                       # attempts to use FU when none available
system.cpu.iq.fu_full::SimdPredAlu                  0                       # attempts to use FU when none available
system.cpu.iq.fu_full::MemRead                      0                       # attempts to use FU when none available
system.cpu.iq.fu_full::MemWrite                     0                       # attempts to use FU when none available
system.cpu.iq.fu_full::FloatMemRead                 0                       # attempts to use FU when none available
system.cpu.iq.fu_full::FloatMemWrite                0                       # attempts to use FU when none available
system.cpu.iq.fu_full::IprAccess                    0                       # attempts to use FU when none available
system.cpu.iq.fu_full::InstPrefetch                 0                       # attempts to use FU when none available
system.cpu.iq.int_alu_accesses             1164227183                       # Number of integer alu accesses
system.cpu.iq.int_inst_queue_reads         2652003506                       # Number of integer instruction queue reads
system.cpu.iq.int_inst_queue_wakeup_accesses   1164079056                       # Number of integer instruction queue wakeup accesses
system.cpu.iq.int_inst_queue_writes        1167709544                       # Number of integer instruction queue writes
system.cpu.iq.iqInstsAdded                 1166205052                       # Number of instructions added to the IQ (excludes non-spec)
system.cpu.iq.iqInstsIssued                1165461392                       # Number of instructions issued
system.cpu.iq.iqNonSpecInstsAdded                4279                       # Number of non-speculative instructions added to the IQ
system.cpu.iq.iqSquashedInstsExamined         2632395                       # Number of squashed instructions iterated over during squash; mainly for profiling
system.cpu.iq.iqSquashedInstsIssued             67578                       # Number of squashed instructions issued
system.cpu.iq.iqSquashedNonSpecRemoved           3480                       # Number of squashed non-spec instructions that were removed
system.cpu.iq.iqSquashedOperandsExamined      3488660                       # Number of squashed operands that are examined and possibly removed from graph
system.cpu.iq.issued_per_cycle::samples     323195470                       # Number of insts issued each cycle
system.cpu.iq.issued_per_cycle::mean         3.606057                       # Number of insts issued each cycle
system.cpu.iq.issued_per_cycle::stdev        0.628588                       # Number of insts issued each cycle
system.cpu.iq.issued_per_cycle::underflows            0      0.00%      0.00% # Number of insts issued each cycle
system.cpu.iq.issued_per_cycle::0             2776287      0.86%      0.86% # Number of insts issued each cycle
system.cpu.iq.issued_per_cycle::1             2042127      0.63%      1.49% # Number of insts issued each cycle
system.cpu.iq.issued_per_cycle::2             2485077      0.77%      2.26% # Number of insts issued each cycle
system.cpu.iq.issued_per_cycle::3           105118805     32.52%     34.78% # Number of insts issued each cycle
system.cpu.iq.issued_per_cycle::4           210773174     65.22%    100.00% # Number of insts issued each cycle
system.cpu.iq.issued_per_cycle::overflows            0      0.00%    100.00% # Number of insts issued each cycle
system.cpu.iq.issued_per_cycle::min_value            0                       # Number of insts issued each cycle
system.cpu.iq.issued_per_cycle::max_value            4                       # Number of insts issued each cycle
system.cpu.iq.issued_per_cycle::total       323195470                       # Number of insts issued each cycle
system.cpu.iq.rate                           3.604148                       # Inst issue rate
system.cpu.iq.vec_alu_accesses                      0                       # Number of vector alu accesses
system.cpu.iq.vec_inst_queue_reads                  0                       # Number of vector instruction queue reads
system.cpu.iq.vec_inst_queue_wakeup_accesses            0                       # Number of vector instruction queue wakeup accesses
system.cpu.iq.vec_inst_queue_writes                 0                       # Number of vector instruction queue writes
system.cpu.itb.rdAccesses                           0                       # TLB accesses on read requests
system.cpu.itb.rdMisses                             0                       # TLB misses on read requests
system.cpu.itb.wrAccesses                     2667594                       # TLB accesses on write requests
system.cpu.itb.wrMisses                           370                       # TLB misses on write requests
system.cpu.memDep0.conflictingLoads            130146                       # Number of conflicting loads.
system.cpu.memDep0.conflictingStores            65853                       # Number of conflicting stores.
system.cpu.memDep0.insertedLoads            106884236                       # Number of loads inserted to the mem dependence unit.
system.cpu.memDep0.insertedStores             2308085                       # Number of stores inserted to the mem dependence unit.
system.cpu.misc_regfile_reads               527677993                       # number of misc regfile reads
system.cpu.misc_regfile_writes                    720                       # number of misc regfile writes
system.cpu.numCycles                        323366677                       # number of cpu cycles simulated
system.cpu.numWorkItemsCompleted                    0                       # number of work items this cpu completed
system.cpu.numWorkItemsStarted                      0                       # number of work items this cpu started
system.cpu.process.numSyscalls                     78                       # Number of system calls
system.cpu.rename.BlockCycles                 1329981                       # Number of cycles rename is blocking
system.cpu.rename.CommittedMaps            1581396957                       # Number of HB maps that are committed
system.cpu.rename.FullRegisterEvents               40                       # Number of times there has been no free registers
system.cpu.rename.IQFullEvents                 181858                       # Number of times rename has blocked due to IQ full
system.cpu.rename.IdleCycles                  3027688                       # Number of cycles rename is idle
system.cpu.rename.LQFullEvents                  17449                       # Number of times rename has blocked due to LQ full
system.cpu.rename.ROBFullEvents                  4646                       # Number of times rename has blocked due to ROB full
system.cpu.rename.RenameLookups            2867846830                       # Number of register rename lookups that rename has made
system.cpu.rename.RenamedInsts             1166978341                       # Number of instructions processed by rename
system.cpu.rename.RenamedOperands          1585803494                       # Number of destination operands rename has renamed
system.cpu.rename.RunCycles                 318271169                       # Number of cycles rename is running
system.cpu.rename.SQFullEvents                 149087                       # Number of times rename has blocked due to SQ full
system.cpu.rename.SquashCycles                 116064                       # Number of cycles rename is squashing
system.cpu.rename.UnblockCycles                429725                       # Number of cycles rename is unblocking
system.cpu.rename.UndoneMaps                  4406514                       # Number of HB maps that are undone due to squashing
system.cpu.rename.fp_rename_lookups           1875592                       # Number of floating rename lookups
system.cpu.rename.int_rename_lookups       1287909531                       # Number of integer rename lookups
system.cpu.rename.serializeStallCycles          20843                       # count of cycles rename stalled for serializing inst
system.cpu.rename.serializingInsts                939                       # count of serializing insts renamed
system.cpu.rename.skidInsts                    594310                       # count of insts added to the skid buffer
system.cpu.rename.tempSerializingInsts            992                       # count of temporary serializing insts renamed
system.cpu.rob.rob_reads                   1276348710                       # The number of ROB reads
system.cpu.rob.rob_writes                  2333143060                       # The number of ROB writes
system.cpu.timesIdled                            1906                       # Number of times that the entire CPU went into an idle state and unscheduled itself
system.l2bus.snoop_filter.hit_multi_requests           12                       # Number of requests hitting in the snoop filter with multiple (>1) holders of the requested data.
system.l2bus.snoop_filter.hit_multi_snoops            0                       # Number of snoops hitting in the snoop filter with multiple (>1) holders of the requested data.
system.l2bus.snoop_filter.hit_single_requests        21073                       # Number of requests hitting in the snoop filter with a single holder of the requested data.
system.l2bus.snoop_filter.hit_single_snoops          495                       # Number of snoops hitting in the snoop filter with a single holder of the requested data.
system.l2bus.snoop_filter.tot_requests          43426                       # Total number of requests made to the snoop filter.
system.l2bus.snoop_filter.tot_snoops              495                       # Total number of snoops made to the snoop filter.
system.l2cache.prefetcher.num_hwpf_issued          980                       # number of hwpf issued
system.l2cache.prefetcher.pfBufferHit               0                       # number of redundant prefetches already in prefetch queue
system.l2cache.prefetcher.pfIdentified            981                       # number of prefetch candidates identified
system.l2cache.prefetcher.pfInCache                 0                       # number of redundant prefetches already in cache/mshr dropped
system.l2cache.prefetcher.pfRemovedFull             0                       # number of prefetches dropped due to prefetch queue size
system.l2cache.prefetcher.pfSpanPage              107                       # number of prefetches that crossed the page
system.membus.snoop_filter.hit_multi_requests            0                       # Number of requests hitting in the snoop filter with multiple (>1) holders of the requested data.
system.membus.snoop_filter.hit_multi_snoops            0                       # Number of snoops hitting in the snoop filter with multiple (>1) holders of the requested data.
system.membus.snoop_filter.hit_single_requests        10555                       # Number of requests hitting in the snoop filter with a single holder of the requested data.
system.membus.snoop_filter.hit_single_snoops            0                       # Number of snoops hitting in the snoop filter with a single holder of the requested data.
system.membus.snoop_filter.tot_requests         25223                       # Total number of requests made to the snoop filter.
system.membus.snoop_filter.tot_snoops               0                       # Total number of snoops made to the snoop filter.
system.membus.pwrStateResidencyTicks::UNDEFINED 129346670400                       # Cumulative time (in ticks) in various power states
system.membus.trans_dist::ReadResp              12895                       # Transaction distribution
system.membus.trans_dist::WritebackDirty         1410                       # Transaction distribution
system.membus.trans_dist::CleanEvict             9145                       # Transaction distribution
system.membus.trans_dist::ReadExReq              1773                       # Transaction distribution
system.membus.trans_dist::ReadExResp             1773                       # Transaction distribution
system.membus.trans_dist::ReadSharedReq         12895                       # Transaction distribution
system.membus.pkt_count_system.l2cache.mem_side::system.mem_ctrl.port        39891                       # Packet count per connected master and slave (bytes)
system.membus.pkt_count_system.l2cache.mem_side::total        39891                       # Packet count per connected master and slave (bytes)
system.membus.pkt_count::total                  39891                       # Packet count per connected master and slave (bytes)
system.membus.pkt_size_system.l2cache.mem_side::system.mem_ctrl.port      1028992                       # Cumulative packet size per connected master and slave (bytes)
system.membus.pkt_size_system.l2cache.mem_side::total      1028992                       # Cumulative packet size per connected master and slave (bytes)
system.membus.pkt_size::total                 1028992                       # Cumulative packet size per connected master and slave (bytes)
system.membus.snoops                                0                       # Total snoops (count)
system.membus.snoopTraffic                          0                       # Total snoop traffic (bytes)
system.membus.snoop_fanout::samples             14668                       # Request fanout histogram
system.membus.snoop_fanout::mean                    0                       # Request fanout histogram
system.membus.snoop_fanout::stdev                   0                       # Request fanout histogram
system.membus.snoop_fanout::underflows              0      0.00%      0.00% # Request fanout histogram
system.membus.snoop_fanout::0                   14668    100.00%    100.00% # Request fanout histogram
system.membus.snoop_fanout::1                       0      0.00%    100.00% # Request fanout histogram
system.membus.snoop_fanout::overflows               0      0.00%    100.00% # Request fanout histogram
system.membus.snoop_fanout::min_value               0                       # Request fanout histogram
system.membus.snoop_fanout::max_value               0                       # Request fanout histogram
system.membus.snoop_fanout::total               14668                       # Request fanout histogram
system.membus.reqLayer2.occupancy            12401062                       # Layer occupancy (ticks)
system.membus.reqLayer2.utilization               0.0                       # Layer utilization (%)
system.membus.respLayer0.occupancy           31831038                       # Layer occupancy (ticks)
system.membus.respLayer0.utilization              0.0                       # Layer utilization (%)
system.l2bus.pwrStateResidencyTicks::UNDEFINED 129346670400                       # Cumulative time (in ticks) in various power states
system.l2bus.trans_dist::ReadResp               19611                       # Transaction distribution
system.l2bus.trans_dist::WritebackDirty          5209                       # Transaction distribution
system.l2bus.trans_dist::CleanEvict             26515                       # Transaction distribution
system.l2bus.trans_dist::HardPFReq               1374                       # Transaction distribution
system.l2bus.trans_dist::ReadExReq               2742                       # Transaction distribution
system.l2bus.trans_dist::ReadExResp              2742                       # Transaction distribution
system.l2bus.trans_dist::ReadSharedReq          19611                       # Transaction distribution
system.l2bus.pkt_count_system.cpu.icache.mem_side::system.l2cache.cpu_side        10416                       # Packet count per connected master and slave (bytes)
system.l2bus.pkt_count_system.cpu.dcache.mem_side::system.l2cache.cpu_side        55358                       # Packet count per connected master and slave (bytes)
system.l2bus.pkt_count::total                   65774                       # Packet count per connected master and slave (bytes)
system.l2bus.pkt_size_system.cpu.icache.mem_side::system.l2cache.cpu_side       227776                       # Cumulative packet size per connected master and slave (bytes)
system.l2bus.pkt_size_system.cpu.dcache.mem_side::system.l2cache.cpu_side      1445632                       # Cumulative packet size per connected master and slave (bytes)
system.l2bus.pkt_size::total                  1673408                       # Cumulative packet size per connected master and slave (bytes)
system.l2bus.snoops                             12030                       # Total snoops (count)
system.l2bus.snoopTraffic                       90560                       # Total snoop traffic (bytes)
system.l2bus.snoop_fanout::samples              34378                       # Request fanout histogram
system.l2bus.snoop_fanout::mean              0.014748                       # Request fanout histogram
system.l2bus.snoop_fanout::stdev             0.120543                       # Request fanout histogram
system.l2bus.snoop_fanout::underflows               0      0.00%      0.00% # Request fanout histogram
system.l2bus.snoop_fanout::0                    33871     98.53%     98.53% # Request fanout histogram
system.l2bus.snoop_fanout::1                      507      1.47%    100.00% # Request fanout histogram
system.l2bus.snoop_fanout::2                        0      0.00%    100.00% # Request fanout histogram
system.l2bus.snoop_fanout::overflows                0      0.00%    100.00% # Request fanout histogram
system.l2bus.snoop_fanout::min_value                0                       # Request fanout histogram
system.l2bus.snoop_fanout::max_value                1                       # Request fanout histogram
system.l2bus.snoop_fanout::total                34378                       # Request fanout histogram
system.l2bus.respLayer1.occupancy            22556793                       # Layer occupancy (ticks)
system.l2bus.respLayer1.utilization               0.0                       # Layer utilization (%)
system.l2bus.reqLayer0.occupancy             22037711                       # Layer occupancy (ticks)
system.l2bus.reqLayer0.utilization                0.0                       # Layer utilization (%)
system.l2bus.respLayer0.occupancy             4271196                       # Layer occupancy (ticks)
system.l2bus.respLayer0.utilization               0.0                       # Layer utilization (%)
system.clk_domain.clock                           400                       # Clock period in ticks
system.clk_domain.voltage_domain.voltage            1                       # Voltage in Volts
system.cpu.pwrStateResidencyTicks::ON    129346670400                       # Cumulative time (in ticks) in various power states
system.cpu.icache.pwrStateResidencyTicks::UNDEFINED 129346670400                       # Cumulative time (in ticks) in various power states
system.cpu.icache.demand_hits::.cpu.inst      2663173                       # number of demand (read+write) hits
system.cpu.icache.demand_hits::total          2663173                       # number of demand (read+write) hits
system.cpu.icache.overall_hits::.cpu.inst      2663173                       # number of overall hits
system.cpu.icache.overall_hits::total         2663173                       # number of overall hits
system.cpu.icache.demand_misses::.cpu.inst         4306                       # number of demand (read+write) misses
system.cpu.icache.demand_misses::total           4306                       # number of demand (read+write) misses
system.cpu.icache.overall_misses::.cpu.inst         4306                       # number of overall misses
system.cpu.icache.overall_misses::total          4306                       # number of overall misses
system.cpu.icache.demand_miss_latency::.cpu.inst    190580800                       # number of demand (read+write) miss cycles
system.cpu.icache.demand_miss_latency::total    190580800                       # number of demand (read+write) miss cycles
system.cpu.icache.overall_miss_latency::.cpu.inst    190580800                       # number of overall miss cycles
system.cpu.icache.overall_miss_latency::total    190580800                       # number of overall miss cycles
system.cpu.icache.demand_accesses::.cpu.inst      2667479                       # number of demand (read+write) accesses
system.cpu.icache.demand_accesses::total      2667479                       # number of demand (read+write) accesses
system.cpu.icache.overall_accesses::.cpu.inst      2667479                       # number of overall (read+write) accesses
system.cpu.icache.overall_accesses::total      2667479                       # number of overall (read+write) accesses
system.cpu.icache.demand_miss_rate::.cpu.inst     0.001614                       # miss rate for demand accesses
system.cpu.icache.demand_miss_rate::total     0.001614                       # miss rate for demand accesses
system.cpu.icache.overall_miss_rate::.cpu.inst     0.001614                       # miss rate for overall accesses
system.cpu.icache.overall_miss_rate::total     0.001614                       # miss rate for overall accesses
system.cpu.icache.demand_avg_miss_latency::.cpu.inst 44259.359034                       # average overall miss latency
system.cpu.icache.demand_avg_miss_latency::total 44259.359034                       # average overall miss latency
system.cpu.icache.overall_avg_miss_latency::.cpu.inst 44259.359034                       # average overall miss latency
system.cpu.icache.overall_avg_miss_latency::total 44259.359034                       # average overall miss latency
system.cpu.icache.blocked_cycles::no_mshrs          141                       # number of cycles access was blocked
system.cpu.icache.blocked_cycles::no_targets            0                       # number of cycles access was blocked
system.cpu.icache.blocked::no_mshrs                 7                       # number of cycles access was blocked
system.cpu.icache.blocked::no_targets               0                       # number of cycles access was blocked
system.cpu.icache.avg_blocked_cycles::no_mshrs    20.142857                       # average number of cycles each access was blocked
system.cpu.icache.avg_blocked_cycles::no_targets          nan                       # average number of cycles each access was blocked
system.cpu.icache.writebacks::.writebacks            3                       # number of writebacks
system.cpu.icache.writebacks::total                 3                       # number of writebacks
system.cpu.icache.demand_mshr_hits::.cpu.inst          748                       # number of demand (read+write) MSHR hits
system.cpu.icache.demand_mshr_hits::total          748                       # number of demand (read+write) MSHR hits
system.cpu.icache.overall_mshr_hits::.cpu.inst          748                       # number of overall MSHR hits
system.cpu.icache.overall_mshr_hits::total          748                       # number of overall MSHR hits
system.cpu.icache.demand_mshr_misses::.cpu.inst         3558                       # number of demand (read+write) MSHR misses
system.cpu.icache.demand_mshr_misses::total         3558                       # number of demand (read+write) MSHR misses
system.cpu.icache.overall_mshr_misses::.cpu.inst         3558                       # number of overall MSHR misses
system.cpu.icache.overall_mshr_misses::total         3558                       # number of overall MSHR misses
system.cpu.icache.demand_mshr_miss_latency::.cpu.inst    155243200                       # number of demand (read+write) MSHR miss cycles
system.cpu.icache.demand_mshr_miss_latency::total    155243200                       # number of demand (read+write) MSHR miss cycles
system.cpu.icache.overall_mshr_miss_latency::.cpu.inst    155243200                       # number of overall MSHR miss cycles
system.cpu.icache.overall_mshr_miss_latency::total    155243200                       # number of overall MSHR miss cycles
system.cpu.icache.demand_mshr_miss_rate::.cpu.inst     0.001334                       # mshr miss rate for demand accesses
system.cpu.icache.demand_mshr_miss_rate::total     0.001334                       # mshr miss rate for demand accesses
system.cpu.icache.overall_mshr_miss_rate::.cpu.inst     0.001334                       # mshr miss rate for overall accesses
system.cpu.icache.overall_mshr_miss_rate::total     0.001334                       # mshr miss rate for overall accesses
system.cpu.icache.demand_avg_mshr_miss_latency::.cpu.inst 43632.152895                       # average overall mshr miss latency
system.cpu.icache.demand_avg_mshr_miss_latency::total 43632.152895                       # average overall mshr miss latency
system.cpu.icache.overall_avg_mshr_miss_latency::.cpu.inst 43632.152895                       # average overall mshr miss latency
system.cpu.icache.overall_avg_mshr_miss_latency::total 43632.152895                       # average overall mshr miss latency
system.cpu.icache.replacements                   3302                       # number of replacements
system.cpu.icache.ReadReq_hits::.cpu.inst      2663173                       # number of ReadReq hits
system.cpu.icache.ReadReq_hits::total         2663173                       # number of ReadReq hits
system.cpu.icache.ReadReq_misses::.cpu.inst         4306                       # number of ReadReq misses
system.cpu.icache.ReadReq_misses::total          4306                       # number of ReadReq misses
system.cpu.icache.ReadReq_miss_latency::.cpu.inst    190580800                       # number of ReadReq miss cycles
system.cpu.icache.ReadReq_miss_latency::total    190580800                       # number of ReadReq miss cycles
system.cpu.icache.ReadReq_accesses::.cpu.inst      2667479                       # number of ReadReq accesses(hits+misses)
system.cpu.icache.ReadReq_accesses::total      2667479                       # number of ReadReq accesses(hits+misses)
system.cpu.icache.ReadReq_miss_rate::.cpu.inst     0.001614                       # miss rate for ReadReq accesses
system.cpu.icache.ReadReq_miss_rate::total     0.001614                       # miss rate for ReadReq accesses
system.cpu.icache.ReadReq_avg_miss_latency::.cpu.inst 44259.359034                       # average ReadReq miss latency
system.cpu.icache.ReadReq_avg_miss_latency::total 44259.359034                       # average ReadReq miss latency
system.cpu.icache.ReadReq_mshr_hits::.cpu.inst          748                       # number of ReadReq MSHR hits
system.cpu.icache.ReadReq_mshr_hits::total          748                       # number of ReadReq MSHR hits
system.cpu.icache.ReadReq_mshr_misses::.cpu.inst         3558                       # number of ReadReq MSHR misses
system.cpu.icache.ReadReq_mshr_misses::total         3558                       # number of ReadReq MSHR misses
system.cpu.icache.ReadReq_mshr_miss_latency::.cpu.inst    155243200                       # number of ReadReq MSHR miss cycles
system.cpu.icache.ReadReq_mshr_miss_latency::total    155243200                       # number of ReadReq MSHR miss cycles
system.cpu.icache.ReadReq_mshr_miss_rate::.cpu.inst     0.001334                       # mshr miss rate for ReadReq accesses
system.cpu.icache.ReadReq_mshr_miss_rate::total     0.001334                       # mshr miss rate for ReadReq accesses
system.cpu.icache.ReadReq_avg_mshr_miss_latency::.cpu.inst 43632.152895                       # average ReadReq mshr miss latency
system.cpu.icache.ReadReq_avg_mshr_miss_latency::total 43632.152895                       # average ReadReq mshr miss latency
system.cpu.icache.prefetcher.pwrStateResidencyTicks::UNDEFINED 129346670400                       # Cumulative time (in ticks) in various power states
system.cpu.icache.tags.pwrStateResidencyTicks::UNDEFINED 129346670400                       # Cumulative time (in ticks) in various power states
system.cpu.icache.tags.tagsinuse           255.978615                       # Cycle average of tags in use
system.cpu.icache.tags.total_refs             1606627                       # Total number of references to valid blocks.
system.cpu.icache.tags.sampled_refs              3302                       # Sample count of references to valid blocks.
system.cpu.icache.tags.avg_refs            486.561781                       # Average number of references to valid blocks.
system.cpu.icache.tags.warmup_cycle             66400                       # Cycle when the warmup percentage was hit.
system.cpu.icache.tags.occ_blocks::.cpu.inst   255.978615                       # Average occupied blocks per requestor
system.cpu.icache.tags.occ_percent::.cpu.inst     0.999916                       # Average percentage of cache occupancy
system.cpu.icache.tags.occ_percent::total     0.999916                       # Average percentage of cache occupancy
system.cpu.icache.tags.occ_task_id_blocks::1024          256                       # Occupied blocks per task id
system.cpu.icache.tags.age_task_id_blocks_1024::0           89                       # Occupied blocks per task id
system.cpu.icache.tags.age_task_id_blocks_1024::1            1                       # Occupied blocks per task id
system.cpu.icache.tags.age_task_id_blocks_1024::2            1                       # Occupied blocks per task id
system.cpu.icache.tags.age_task_id_blocks_1024::3           18                       # Occupied blocks per task id
system.cpu.icache.tags.age_task_id_blocks_1024::4          147                       # Occupied blocks per task id
system.cpu.icache.tags.occ_task_id_percent::1024            1                       # Percentage of cache occupancy per task id
system.cpu.icache.tags.tag_accesses           5338516                       # Number of tag accesses
system.cpu.icache.tags.data_accesses          5338516                       # Number of data accesses
system.cpu.dtb.walker.pwrStateResidencyTicks::UNDEFINED 129346670400                       # Cumulative time (in ticks) in various power states
system.cpu.interrupts.clk_domain.clock           6400                       # Clock period in ticks
system.cpu.itb.walker.pwrStateResidencyTicks::UNDEFINED 129346670400                       # Cumulative time (in ticks) in various power states
system.cpu.dcache.pwrStateResidencyTicks::UNDEFINED 129346670400                       # Cumulative time (in ticks) in various power states
system.cpu.dcache.demand_hits::.cpu.data    108827679                       # number of demand (read+write) hits
system.cpu.dcache.demand_hits::total        108827679                       # number of demand (read+write) hits
system.cpu.dcache.overall_hits::.cpu.data    108827679                       # number of overall hits
system.cpu.dcache.overall_hits::total       108827679                       # number of overall hits
system.cpu.dcache.demand_misses::.cpu.data        37438                       # number of demand (read+write) misses
system.cpu.dcache.demand_misses::total          37438                       # number of demand (read+write) misses
system.cpu.dcache.overall_misses::.cpu.data        37438                       # number of overall misses
system.cpu.dcache.overall_misses::total         37438                       # number of overall misses
system.cpu.dcache.demand_miss_latency::.cpu.data   1780459600                       # number of demand (read+write) miss cycles
system.cpu.dcache.demand_miss_latency::total   1780459600                       # number of demand (read+write) miss cycles
system.cpu.dcache.overall_miss_latency::.cpu.data   1780459600                       # number of overall miss cycles
system.cpu.dcache.overall_miss_latency::total   1780459600                       # number of overall miss cycles
system.cpu.dcache.demand_accesses::.cpu.data    108865117                       # number of demand (read+write) accesses
system.cpu.dcache.demand_accesses::total    108865117                       # number of demand (read+write) accesses
system.cpu.dcache.overall_accesses::.cpu.data    108865117                       # number of overall (read+write) accesses
system.cpu.dcache.overall_accesses::total    108865117                       # number of overall (read+write) accesses
system.cpu.dcache.demand_miss_rate::.cpu.data     0.000344                       # miss rate for demand accesses
system.cpu.dcache.demand_miss_rate::total     0.000344                       # miss rate for demand accesses
system.cpu.dcache.overall_miss_rate::.cpu.data     0.000344                       # miss rate for overall accesses
system.cpu.dcache.overall_miss_rate::total     0.000344                       # miss rate for overall accesses
system.cpu.dcache.demand_avg_miss_latency::.cpu.data 47557.551151                       # average overall miss latency
system.cpu.dcache.demand_avg_miss_latency::total 47557.551151                       # average overall miss latency
system.cpu.dcache.overall_avg_miss_latency::.cpu.data 47557.551151                       # average overall miss latency
system.cpu.dcache.overall_avg_miss_latency::total 47557.551151                       # average overall miss latency
system.cpu.dcache.blocked_cycles::no_mshrs        28770                       # number of cycles access was blocked
system.cpu.dcache.blocked_cycles::no_targets          138                       # number of cycles access was blocked
system.cpu.dcache.blocked::no_mshrs               771                       # number of cycles access was blocked
system.cpu.dcache.blocked::no_targets               1                       # number of cycles access was blocked
system.cpu.dcache.avg_blocked_cycles::no_mshrs    37.315175                       # average number of cycles each access was blocked
system.cpu.dcache.avg_blocked_cycles::no_targets          138                       # average number of cycles each access was blocked
system.cpu.dcache.unused_prefetches              2030                       # number of HardPF blocks evicted w/o reference
system.cpu.dcache.writebacks::.writebacks         3796                       # number of writebacks
system.cpu.dcache.writebacks::total              3796                       # number of writebacks
system.cpu.dcache.demand_mshr_hits::.cpu.data        23672                       # number of demand (read+write) MSHR hits
system.cpu.dcache.demand_mshr_hits::total        23672                       # number of demand (read+write) MSHR hits
system.cpu.dcache.overall_mshr_hits::.cpu.data        23672                       # number of overall MSHR hits
system.cpu.dcache.overall_mshr_hits::total        23672                       # number of overall MSHR hits
system.cpu.dcache.demand_mshr_misses::.cpu.data        13766                       # number of demand (read+write) MSHR misses
system.cpu.dcache.demand_mshr_misses::total        13766                       # number of demand (read+write) MSHR misses
system.cpu.dcache.overall_mshr_misses::.cpu.data        13766                       # number of overall MSHR misses
system.cpu.dcache.overall_mshr_misses::.cpu.dcache.prefetcher         5029                       # number of overall MSHR misses
system.cpu.dcache.overall_mshr_misses::total        18795                       # number of overall MSHR misses
system.cpu.dcache.demand_mshr_miss_latency::.cpu.data    622208400                       # number of demand (read+write) MSHR miss cycles
system.cpu.dcache.demand_mshr_miss_latency::total    622208400                       # number of demand (read+write) MSHR miss cycles
system.cpu.dcache.overall_mshr_miss_latency::.cpu.data    622208400                       # number of overall MSHR miss cycles
system.cpu.dcache.overall_mshr_miss_latency::.cpu.dcache.prefetcher    270709941                       # number of overall MSHR miss cycles
system.cpu.dcache.overall_mshr_miss_latency::total    892918341                       # number of overall MSHR miss cycles
system.cpu.dcache.demand_mshr_miss_rate::.cpu.data     0.000126                       # mshr miss rate for demand accesses
system.cpu.dcache.demand_mshr_miss_rate::total     0.000126                       # mshr miss rate for demand accesses
system.cpu.dcache.overall_mshr_miss_rate::.cpu.data     0.000126                       # mshr miss rate for overall accesses
system.cpu.dcache.overall_mshr_miss_rate::.cpu.dcache.prefetcher          inf                       # mshr miss rate for overall accesses
system.cpu.dcache.overall_mshr_miss_rate::total     0.000173                       # mshr miss rate for overall accesses
system.cpu.dcache.demand_avg_mshr_miss_latency::.cpu.data 45198.924887                       # average overall mshr miss latency
system.cpu.dcache.demand_avg_mshr_miss_latency::total 45198.924887                       # average overall mshr miss latency
system.cpu.dcache.overall_avg_mshr_miss_latency::.cpu.data 45198.924887                       # average overall mshr miss latency
system.cpu.dcache.overall_avg_mshr_miss_latency::.cpu.dcache.prefetcher 53829.775502                       # average overall mshr miss latency
system.cpu.dcache.overall_avg_mshr_miss_latency::total 47508.291620                       # average overall mshr miss latency
system.cpu.dcache.replacements                  17771                       # number of replacements
system.cpu.dcache.ReadReq_hits::.cpu.data    106605788                       # number of ReadReq hits
system.cpu.dcache.ReadReq_hits::total       106605788                       # number of ReadReq hits
system.cpu.dcache.ReadReq_misses::.cpu.data        34586                       # number of ReadReq misses
system.cpu.dcache.ReadReq_misses::total         34586                       # number of ReadReq misses
system.cpu.dcache.ReadReq_miss_latency::.cpu.data   1639391600                       # number of ReadReq miss cycles
system.cpu.dcache.ReadReq_miss_latency::total   1639391600                       # number of ReadReq miss cycles
system.cpu.dcache.ReadReq_accesses::.cpu.data    106640374                       # number of ReadReq accesses(hits+misses)
system.cpu.dcache.ReadReq_accesses::total    106640374                       # number of ReadReq accesses(hits+misses)
system.cpu.dcache.ReadReq_miss_rate::.cpu.data     0.000324                       # miss rate for ReadReq accesses
system.cpu.dcache.ReadReq_miss_rate::total     0.000324                       # miss rate for ReadReq accesses
system.cpu.dcache.ReadReq_avg_miss_latency::.cpu.data 47400.439484                       # average ReadReq miss latency
system.cpu.dcache.ReadReq_avg_miss_latency::total 47400.439484                       # average ReadReq miss latency
system.cpu.dcache.ReadReq_mshr_hits::.cpu.data        23561                       # number of ReadReq MSHR hits
system.cpu.dcache.ReadReq_mshr_hits::total        23561                       # number of ReadReq MSHR hits
system.cpu.dcache.ReadReq_mshr_misses::.cpu.data        11025                       # number of ReadReq MSHR misses
system.cpu.dcache.ReadReq_mshr_misses::total        11025                       # number of ReadReq MSHR misses
system.cpu.dcache.ReadReq_mshr_miss_latency::.cpu.data    487534800                       # number of ReadReq MSHR miss cycles
system.cpu.dcache.ReadReq_mshr_miss_latency::total    487534800                       # number of ReadReq MSHR miss cycles
system.cpu.dcache.ReadReq_mshr_miss_rate::.cpu.data     0.000103                       # mshr miss rate for ReadReq accesses
system.cpu.dcache.ReadReq_mshr_miss_rate::total     0.000103                       # mshr miss rate for ReadReq accesses
system.cpu.dcache.ReadReq_avg_mshr_miss_latency::.cpu.data 44220.843537                       # average ReadReq mshr miss latency
system.cpu.dcache.ReadReq_avg_mshr_miss_latency::total 44220.843537                       # average ReadReq mshr miss latency
system.cpu.dcache.WriteReq_hits::.cpu.data      2221891                       # number of WriteReq hits
system.cpu.dcache.WriteReq_hits::total        2221891                       # number of WriteReq hits
system.cpu.dcache.WriteReq_misses::.cpu.data         2852                       # number of WriteReq misses
system.cpu.dcache.WriteReq_misses::total         2852                       # number of WriteReq misses
system.cpu.dcache.WriteReq_miss_latency::.cpu.data    141068000                       # number of WriteReq miss cycles
system.cpu.dcache.WriteReq_miss_latency::total    141068000                       # number of WriteReq miss cycles
system.cpu.dcache.WriteReq_accesses::.cpu.data      2224743                       # number of WriteReq accesses(hits+misses)
system.cpu.dcache.WriteReq_accesses::total      2224743                       # number of WriteReq accesses(hits+misses)
system.cpu.dcache.WriteReq_miss_rate::.cpu.data     0.001282                       # miss rate for WriteReq accesses
system.cpu.dcache.WriteReq_miss_rate::total     0.001282                       # miss rate for WriteReq accesses
system.cpu.dcache.WriteReq_avg_miss_latency::.cpu.data 49462.833100                       # average WriteReq miss latency
system.cpu.dcache.WriteReq_avg_miss_latency::total 49462.833100                       # average WriteReq miss latency
system.cpu.dcache.WriteReq_mshr_hits::.cpu.data          111                       # number of WriteReq MSHR hits
system.cpu.dcache.WriteReq_mshr_hits::total          111                       # number of WriteReq MSHR hits
[...]
system.l2cache.demand_mshr_miss_rate::.cpu.inst     0.209856                       # mshr miss rate for demand accesses
system.l2cache.demand_mshr_miss_rate::.cpu.data     0.280075                       # mshr miss rate for demand accesses
system.l2cache.demand_mshr_miss_rate::.cpu.dcache.prefetcher     0.750000                       # mshr miss rate for demand accesses
system.l2cache.demand_mshr_miss_rate::total     0.245874                       # mshr miss rate for demand accesses
system.l2cache.overall_mshr_miss_rate::.cpu.inst     0.209856                       # mshr miss rate for overall accesses
system.l2cache.overall_mshr_miss_rate::.cpu.data     0.280075                       # mshr miss rate for overall accesses
system.l2cache.overall_mshr_miss_rate::.cpu.dcache.prefetcher     0.750000                       # mshr miss rate for overall accesses
system.l2cache.overall_mshr_miss_rate::.l2cache.prefetcher          inf                       # mshr miss rate for overall accesses
system.l2cache.overall_mshr_miss_rate::total     0.247581                       # mshr miss rate for overall accesses
system.l2cache.demand_avg_mshr_miss_latency::.cpu.inst 60550.607287                       # average overall mshr miss latency
system.l2cache.demand_avg_mshr_miss_latency::.cpu.data 60359.731544                       # average overall mshr miss latency
system.l2cache.demand_avg_mshr_miss_latency::.cpu.dcache.prefetcher 63443.527778                       # average overall mshr miss latency
system.l2cache.demand_avg_mshr_miss_latency::total 60725.849537                       # average overall mshr miss latency
system.l2cache.overall_avg_mshr_miss_latency::.cpu.inst 60550.607287                       # average overall mshr miss latency
system.l2cache.overall_avg_mshr_miss_latency::.cpu.data 60359.731544                       # average overall mshr miss latency
system.l2cache.overall_avg_mshr_miss_latency::.cpu.dcache.prefetcher 63443.527778                       # average overall mshr miss latency
system.l2cache.overall_avg_mshr_miss_latency::.l2cache.prefetcher        59332                       # average overall mshr miss latency
system.l2cache.overall_avg_mshr_miss_latency::total 60716.236782                       # average overall mshr miss latency
system.l2cache.replacements                       438                       # number of replacements
system.l2cache.WritebackDirty_hits::.writebacks          470                       # number of WritebackDirty hits
system.l2cache.WritebackDirty_hits::total          470                       # number of WritebackDirty hits
system.l2cache.WritebackDirty_accesses::.writebacks          470                       # number of WritebackDirty accesses(hits+misses)
system.l2cache.WritebackDirty_accesses::total          470                       # number of WritebackDirty accesses(hits+misses)
system.l2cache.CleanEvict_mshr_misses::.writebacks           10                       # number of CleanEvict MSHR misses
system.l2cache.CleanEvict_mshr_misses::total           10                       # number of CleanEvict MSHR misses
system.l2cache.CleanEvict_mshr_miss_rate::.writebacks          inf                       # mshr miss rate for CleanEvict accesses
system.l2cache.CleanEvict_mshr_miss_rate::total          inf                       # mshr miss rate for CleanEvict accesses
system.l2cache.HardPFReq_mshr_misses::.l2cache.prefetcher            3                       # number of HardPFReq MSHR misses
system.l2cache.HardPFReq_mshr_misses::total            3                       # number of HardPFReq MSHR misses
system.l2cache.HardPFReq_mshr_miss_latency::.l2cache.prefetcher       177996                       # number of HardPFReq MSHR miss cycles
system.l2cache.HardPFReq_mshr_miss_latency::total       177996                       # number of HardPFReq MSHR miss cycles
system.l2cache.HardPFReq_mshr_miss_rate::.l2cache.prefetcher          inf                       # mshr miss rate for HardPFReq accesses
system.l2cache.HardPFReq_mshr_miss_rate::total          inf                       # mshr miss rate for HardPFReq accesses
system.l2cache.HardPFReq_avg_mshr_miss_latency::.l2cache.prefetcher        59332                       # average HardPFReq mshr miss latency
system.l2cache.HardPFReq_avg_mshr_miss_latency::total        59332                       # average HardPFReq mshr miss latency
system.l2cache.ReadExReq_hits::.cpu.data           82                       # number of ReadExReq hits
system.l2cache.ReadExReq_hits::total               82                       # number of ReadExReq hits
system.l2cache.ReadExReq_misses::.cpu.data            6                       # number of ReadExReq misses
system.l2cache.ReadExReq_misses::total              6                       # number of ReadExReq misses
system.l2cache.ReadExReq_miss_latency::.cpu.data       422800                       # number of ReadExReq miss cycles
system.l2cache.ReadExReq_miss_latency::total       422800                       # number of ReadExReq miss cycles
system.l2cache.ReadExReq_accesses::.cpu.data           88                       # number of ReadExReq accesses(hits+misses)
system.l2cache.ReadExReq_accesses::total           88                       # number of ReadExReq accesses(hits+misses)
system.l2cache.ReadExReq_miss_rate::.cpu.data     0.068182                       # miss rate for ReadExReq accesses
system.l2cache.ReadExReq_miss_rate::total     0.068182                       # miss rate for ReadExReq accesses
system.l2cache.ReadExReq_avg_miss_latency::.cpu.data 70466.666667                       # average ReadExReq miss latency
system.l2cache.ReadExReq_avg_miss_latency::total 70466.666667                       # average ReadExReq miss latency
system.l2cache.ReadExReq_mshr_misses::.cpu.data            6                       # number of ReadExReq MSHR misses
system.l2cache.ReadExReq_mshr_misses::total            6                       # number of ReadExReq MSHR misses
system.l2cache.ReadExReq_mshr_miss_latency::.cpu.data       374800                       # number of ReadExReq MSHR miss cycles
system.l2cache.ReadExReq_mshr_miss_latency::total       374800                       # number of ReadExReq MSHR miss cycles
system.l2cache.ReadExReq_mshr_miss_rate::.cpu.data     0.068182                       # mshr miss rate for ReadExReq accesses
system.l2cache.ReadExReq_mshr_miss_rate::total     0.068182                       # mshr miss rate for ReadExReq accesses
system.l2cache.ReadExReq_avg_mshr_miss_latency::.cpu.data 62466.666667                       # average ReadExReq mshr miss latency
system.l2cache.ReadExReq_avg_mshr_miss_latency::total 62466.666667                       # average ReadExReq mshr miss latency
system.l2cache.ReadSharedReq_hits::.cpu.inst          930                       # number of ReadSharedReq hits
system.l2cache.ReadSharedReq_hits::.cpu.data          301                       # number of ReadSharedReq hits
system.l2cache.ReadSharedReq_hits::.cpu.dcache.prefetcher           12                       # number of ReadSharedReq hits
system.l2cache.ReadSharedReq_hits::total         1243                       # number of ReadSharedReq hits
system.l2cache.ReadSharedReq_misses::.cpu.inst          247                       # number of ReadSharedReq misses
system.l2cache.ReadSharedReq_misses::.cpu.data          143                       # number of ReadSharedReq misses
system.l2cache.ReadSharedReq_misses::.cpu.dcache.prefetcher           36                       # number of ReadSharedReq misses
system.l2cache.ReadSharedReq_misses::total          426                       # number of ReadSharedReq misses
system.l2cache.ReadSharedReq_miss_latency::.cpu.inst     16924000                       # number of ReadSharedReq miss cycles
system.l2cache.ReadSharedReq_miss_latency::.cpu.data      9762800                       # number of ReadSharedReq miss cycles
system.l2cache.ReadSharedReq_miss_latency::.cpu.dcache.prefetcher      2571967                       # number of ReadSharedReq miss cycles
system.l2cache.ReadSharedReq_miss_latency::total     29258767                       # number of ReadSharedReq miss cycles
system.l2cache.ReadSharedReq_accesses::.cpu.inst         1177                       # number of ReadSharedReq accesses(hits+misses)
system.l2cache.ReadSharedReq_accesses::.cpu.data          444                       # number of ReadSharedReq accesses(hits+misses)
system.l2cache.ReadSharedReq_accesses::.cpu.dcache.prefetcher           48                       # number of ReadSharedReq accesses(hits+misses)
system.l2cache.ReadSharedReq_accesses::total         1669                       # number of ReadSharedReq accesses(hits+misses)
system.l2cache.ReadSharedReq_miss_rate::.cpu.inst     0.209856                       # miss rate for ReadSharedReq accesses
system.l2cache.ReadSharedReq_miss_rate::.cpu.data     0.322072                       # miss rate for ReadSharedReq accesses
system.l2cache.ReadSharedReq_miss_rate::.cpu.dcache.prefetcher     0.750000                       # miss rate for ReadSharedReq accesses
system.l2cache.ReadSharedReq_miss_rate::total     0.255243                       # miss rate for ReadSharedReq accesses
system.l2cache.ReadSharedReq_avg_miss_latency::.cpu.inst 68518.218623                       # average ReadSharedReq miss latency
system.l2cache.ReadSharedReq_avg_miss_latency::.cpu.data 68271.328671                       # average ReadSharedReq miss latency
system.l2cache.ReadSharedReq_avg_miss_latency::.cpu.dcache.prefetcher 71443.527778                       # average ReadSharedReq miss latency
system.l2cache.ReadSharedReq_avg_miss_latency::total 68682.551643                       # average ReadSharedReq miss latency
system.l2cache.ReadSharedReq_mshr_misses::.cpu.inst          247                       # number of ReadSharedReq MSHR misses
system.l2cache.ReadSharedReq_mshr_misses::.cpu.data          143                       # number of ReadSharedReq MSHR misses
system.l2cache.ReadSharedReq_mshr_misses::.cpu.dcache.prefetcher           36                       # number of ReadSharedReq MSHR misses
system.l2cache.ReadSharedReq_mshr_misses::total          426                       # number of ReadSharedReq MSHR misses
system.l2cache.ReadSharedReq_mshr_miss_latency::.cpu.inst     14956000                       # number of ReadSharedReq MSHR miss cycles
system.l2cache.ReadSharedReq_mshr_miss_latency::.cpu.data      8618800                       # number of ReadSharedReq MSHR miss cycles
system.l2cache.ReadSharedReq_mshr_miss_latency::.cpu.dcache.prefetcher      2283967                       # number of ReadSharedReq MSHR miss cycles
system.l2cache.ReadSharedReq_mshr_miss_latency::total     25858767                       # number of ReadSharedReq MSHR miss cycles
system.l2cache.ReadSharedReq_mshr_miss_rate::.cpu.inst     0.209856                       # mshr miss rate for ReadSharedReq accesses
system.l2cache.ReadSharedReq_mshr_miss_rate::.cpu.data     0.322072                       # mshr miss rate for ReadSharedReq accesses
system.l2cache.ReadSharedReq_mshr_miss_rate::.cpu.dcache.prefetcher     0.750000                       # mshr miss rate for ReadSharedReq accesses
system.l2cache.ReadSharedReq_mshr_miss_rate::total     0.255243                       # mshr miss rate for ReadSharedReq accesses
system.l2cache.ReadSharedReq_avg_mshr_miss_latency::.cpu.inst 60550.607287                       # average ReadSharedReq mshr miss latency
system.l2cache.ReadSharedReq_avg_mshr_miss_latency::.cpu.data 60271.328671                       # average ReadSharedReq mshr miss latency
system.l2cache.ReadSharedReq_avg_mshr_miss_latency::.cpu.dcache.prefetcher 63443.527778                       # average ReadSharedReq mshr miss latency
system.l2cache.ReadSharedReq_avg_mshr_miss_latency::total 60701.330986                       # average ReadSharedReq mshr miss latency
system.l2cache.prefetcher.pwrStateResidencyTicks::UNDEFINED   1374972800                       # Cumulative time (in ticks) in various power states
system.l2cache.tags.pwrStateResidencyTicks::UNDEFINED   1374972800                       # Cumulative time (in ticks) in various power states
system.l2cache.tags.tagsinuse                    4096                       # Cycle average of tags in use
system.l2cache.tags.total_refs                  17818                       # Total number of references to valid blocks.
system.l2cache.tags.sampled_refs                 4534                       # Sample count of references to valid blocks.
system.l2cache.tags.avg_refs                 3.929863                       # Average number of references to valid blocks.
system.l2cache.tags.warmup_cycle                    0                       # Cycle when the warmup percentage was hit.
system.l2cache.tags.occ_blocks::.writebacks    40.001673                       # Average occupied blocks per requestor
system.l2cache.tags.occ_blocks::.cpu.inst   979.079602                       # Average occupied blocks per requestor
system.l2cache.tags.occ_blocks::.cpu.data  1870.062697                       # Average occupied blocks per requestor
system.l2cache.tags.occ_blocks::.cpu.dcache.prefetcher   855.876751                       # Average occupied blocks per requestor
system.l2cache.tags.occ_blocks::.l2cache.prefetcher   350.979277                       # Average occupied blocks per requestor
system.l2cache.tags.occ_percent::.writebacks     0.009766                       # Average percentage of cache occupancy
system.l2cache.tags.occ_percent::.cpu.inst     0.239033                       # Average percentage of cache occupancy
system.l2cache.tags.occ_percent::.cpu.data     0.456558                       # Average percentage of cache occupancy
system.l2cache.tags.occ_percent::.cpu.dcache.prefetcher     0.208954                       # Average percentage of cache occupancy
system.l2cache.tags.occ_percent::.l2cache.prefetcher     0.085688                       # Average percentage of cache occupancy
system.l2cache.tags.occ_percent::total              1                       # Average percentage of cache occupancy
system.l2cache.tags.occ_task_id_blocks::1022         1152                       # Occupied blocks per task id
system.l2cache.tags.occ_task_id_blocks::1024         2944                       # Occupied blocks per task id
system.l2cache.tags.age_task_id_blocks_1022::0           20                       # Occupied blocks per task id
system.l2cache.tags.age_task_id_blocks_1022::1            5                       # Occupied blocks per task id
system.l2cache.tags.age_task_id_blocks_1022::3           16                       # Occupied blocks per task id
system.l2cache.tags.age_task_id_blocks_1022::4         1111                       # Occupied blocks per task id
system.l2cache.tags.age_task_id_blocks_1024::0          180                       # Occupied blocks per task id
system.l2cache.tags.age_task_id_blocks_1024::1           76                       # Occupied blocks per task id
system.l2cache.tags.age_task_id_blocks_1024::2            1                       # Occupied blocks per task id
system.l2cache.tags.age_task_id_blocks_1024::3          139                       # Occupied blocks per task id
system.l2cache.tags.age_task_id_blocks_1024::4         2548                       # Occupied blocks per task id
system.l2cache.tags.occ_task_id_percent::1022     0.281250                       # Percentage of cache occupancy per task id
system.l2cache.tags.occ_task_id_percent::1024     0.718750                       # Percentage of cache occupancy per task id
system.l2cache.tags.tag_accesses                28542                       # Number of tag accesses
system.l2cache.tags.data_accesses               28542                       # Number of data accesses
system.mem_ctrl.pwrStateResidencyTicks::UNDEFINED   1374972800                       # Cumulative time (in ticks) in various power states
system.mem_ctrl.bytes_read::.cpu.inst           15744                       # Number of bytes read from this memory
system.mem_ctrl.bytes_read::.cpu.data            9536                       # Number of bytes read from this memory
system.mem_ctrl.bytes_read::.cpu.dcache.prefetcher         2304                       # Number of bytes read from this memory
system.mem_ctrl.bytes_read::.l2cache.prefetcher          192                       # Number of bytes read from this memory
system.mem_ctrl.bytes_read::total               27776                       # Number of bytes read from this memory
system.mem_ctrl.bytes_inst_read::.cpu.inst        15744                       # Number of instructions bytes read from this memory
system.mem_ctrl.bytes_inst_read::total          15744                       # Number of instructions bytes read from this memory
system.mem_ctrl.bytes_written::.writebacks         2304                       # Number of bytes written to this memory
system.mem_ctrl.bytes_written::total             2304                       # Number of bytes written to this memory
system.mem_ctrl.num_reads::.cpu.inst              246                       # Number of read requests responded to by this memory
system.mem_ctrl.num_reads::.cpu.data              149                       # Number of read requests responded to by this memory
system.mem_ctrl.num_reads::.cpu.dcache.prefetcher           36                       # Number of read requests responded to by this memory
system.mem_ctrl.num_reads::.l2cache.prefetcher            3                       # Number of read requests responded to by this memory
system.mem_ctrl.num_reads::total                  434                       # Number of read requests responded to by this memory
system.mem_ctrl.num_writes::.writebacks            36                       # Number of write requests responded to by this memory
system.mem_ctrl.num_writes::total                  36                       # Number of write requests responded to by this memory
system.mem_ctrl.bw_read::.cpu.inst           11450408                       # Total read bandwidth from this memory (bytes/s)
system.mem_ctrl.bw_read::.cpu.data            6935410                       # Total read bandwidth from this memory (bytes/s)
system.mem_ctrl.bw_read::.cpu.dcache.prefetcher      1675670                       # Total read bandwidth from this memory (bytes/s)
system.mem_ctrl.bw_read::.l2cache.prefetcher       139639                       # Total read bandwidth from this memory (bytes/s)
system.mem_ctrl.bw_read::total               20201127                       # Total read bandwidth from this memory (bytes/s)
system.mem_ctrl.bw_inst_read::.cpu.inst      11450408                       # Instruction read bandwidth from this memory (bytes/s)
system.mem_ctrl.bw_inst_read::total          11450408                       # Instruction read bandwidth from this memory (bytes/s)
system.mem_ctrl.bw_write::.writebacks         1675670                       # Write bandwidth from this memory (bytes/s)
system.mem_ctrl.bw_write::total               1675670                       # Write bandwidth from this memory (bytes/s)
system.mem_ctrl.bw_total::.writebacks         1675670                       # Total bandwidth to/from this memory (bytes/s)
system.mem_ctrl.bw_total::.cpu.inst          11450408                       # Total bandwidth to/from this memory (bytes/s)
system.mem_ctrl.bw_total::.cpu.data           6935410                       # Total bandwidth to/from this memory (bytes/s)
system.mem_ctrl.bw_total::.cpu.dcache.prefetcher      1675670                       # Total bandwidth to/from this memory (bytes/s)
system.mem_ctrl.bw_total::.l2cache.prefetcher       139639                       # Total bandwidth to/from this memory (bytes/s)
system.mem_ctrl.bw_total::total              21876796                       # Total bandwidth to/from this memory (bytes/s)

---------- End Simulation Statistics   ----------
