
---------- Begin Simulation Statistics ----------
final_tick                                 1103196800                       # Number of ticks from beginning of simulation (restored from checkpoints and never reset)
host_inst_rate                                 180836                       # Simulator instruction rate (inst/s)
host_mem_usage                                4408880                       # Number of bytes of host memory used
host_op_rate                                   315399                       # Simulator op (including micro ops) rate (op/s)
host_seconds                                    11.48                       # Real time elapsed on the host
host_tick_rate                               96124435                       # Simulator tick rate (ticks/s)
sim_freq                                 1000000000000                       # Frequency of simulated ticks
sim_insts                                     2075394                       # Number of instructions simulated
sim_ops                                       3619754                       # Number of ops (including micro ops) simulated
sim_seconds                                  0.001103                       # Number of seconds simulated
sim_ticks                                  1103196800                       # Number of ticks simulated
system.cpu.branchPred.BTBCorrect                    0                       # Number of correct BTB predictions (this stat may not work properly.
system.cpu.branchPred.BTBHitPct              0.000000                       # BTB Hit Percentage
system.cpu.branchPred.BTBHits                       0                       # Number of BTB hits
system.cpu.branchPred.BTBLookups               438750                       # Number of BTB lookups
system.cpu.branchPred.RASInCorrect                 15                       # Number of incorrect RAS predictions.
system.cpu.branchPred.condIncorrect             24151                       # Number of conditional branches incorrect
system.cpu.branchPred.condPredicted            466071                       # Number of conditional branches predicted
system.cpu.branchPred.indirectHits             241292                       # Number of indirect target hits.
system.cpu.branchPred.indirectLookups          438750                       # Number of indirect predictor lookups.
system.cpu.branchPred.indirectMisses           197458                       # Number of indirect misses.
system.cpu.branchPred.lookups                  493517                       # Number of BP lookups
system.cpu.branchPred.usedRAS                   11883                       # Number of times the RAS was used to get a target.
system.cpu.branchPredindirectMispredicted        12095                       # Number of mispredicted indirect branches.
system.cpu.cc_regfile_reads                   2378913                       # number of cc regfile reads
system.cpu.cc_regfile_writes                  1927871                       # number of cc regfile writes
system.cpu.commit.amos                              0                       # Number of atomic instructions committed
system.cpu.commit.branchMispredicts             24274                       # The number of times a branch was mispredicted
system.cpu.commit.branches                     350579                       # Number of branches committed
system.cpu.commit.bw_lim_events                603567                       # number cycles where commit BW limit reached
system.cpu.commit.commitNonSpecStalls             842                       # The number of times commit has been forced to stall to communicate backwards
system.cpu.commit.commitSquashedInsts          884881                       # The number of squashed insts skipped by commit
system.cpu.commit.committedInsts              2075394                       # Number of instructions committed
system.cpu.commit.committedOps                3619754                       # Number of ops (including micro ops) committed
system.cpu.commit.committed_per_cycle::samples      2348883                       # Number of insts commited each cycle
system.cpu.commit.committed_per_cycle::mean     1.541053                       # Number of insts commited each cycle
system.cpu.commit.committed_per_cycle::stdev     1.727174                       # Number of insts commited each cycle
system.cpu.commit.committed_per_cycle::underflows            0      0.00%      0.00% # Number of insts commited each cycle
system.cpu.commit.committed_per_cycle::0      1170547     49.83%     49.83% # Number of insts commited each cycle
system.cpu.commit.committed_per_cycle::1       174684      7.44%     57.27% # Number of insts commited each cycle
system.cpu.commit.committed_per_cycle::2       169453      7.21%     64.49% # Number of insts commited each cycle
system.cpu.commit.committed_per_cycle::3       230632      9.82%     74.30% # Number of insts commited each cycle
system.cpu.commit.committed_per_cycle::4       603567     25.70%    100.00% # Number of insts commited each cycle
system.cpu.commit.committed_per_cycle::overflows            0      0.00%    100.00% # Number of insts commited each cycle
system.cpu.commit.committed_per_cycle::min_value            0                       # Number of insts commited each cycle
system.cpu.commit.committed_per_cycle::max_value            4                       # Number of insts commited each cycle
system.cpu.commit.committed_per_cycle::total      2348883                       # Number of insts commited each cycle
system.cpu.commit.fp_insts                      75825                       # Number of committed floating point instructions.
system.cpu.commit.function_calls                10113                       # Number of function calls committed.
system.cpu.commit.int_insts                   3563683                       # Number of committed integer instructions.
system.cpu.commit.loads                        500512                       # Number of loads committed
system.cpu.commit.membars                           1                       # Number of memory barriers committed
system.cpu.commit.op_class_0::No_OpClass        20776      0.57%      0.57% # Class of committed instruction
system.cpu.commit.op_class_0::IntAlu          2842636     78.53%     79.11% # Class of committed instruction
system.cpu.commit.op_class_0::IntMult             129      0.00%     79.11% # Class of committed instruction
system.cpu.commit.op_class_0::IntDiv            37978      1.05%     80.16% # Class of committed instruction
system.cpu.commit.op_class_0::FloatAdd           2996      0.08%     80.24% # Class of committed instruction
system.cpu.commit.op_class_0::FloatCmp              0      0.00%     80.24% # Class of committed instruction
system.cpu.commit.op_class_0::FloatCvt           1376      0.04%     80.28% # Class of committed instruction
system.cpu.commit.op_class_0::FloatMult             0      0.00%     80.28% # Class of committed instruction
system.cpu.commit.op_class_0::FloatMultAcc            0      0.00%     80.28% # Class of committed instruction
system.cpu.commit.op_class_0::FloatDiv              0      0.00%     80.28% # Class of committed instruction
system.cpu.commit.op_class_0::FloatMisc             0      0.00%     80.28% # Class of committed instruction
system.cpu.commit.op_class_0::FloatSqrt             0      0.00%     80.28% # Class of committed instruction
system.cpu.commit.op_class_0::SimdAdd            6346      0.18%     80.45% # Class of committed instruction
system.cpu.commit.op_class_0::SimdAddAcc            0      0.00%     80.45% # Class of committed instruction
system.cpu.commit.op_class_0::SimdAlu           11415      0.32%     80.77% # Class of committed instruction
system.cpu.commit.op_class_0::SimdCmp               0      0.00%     80.77% # Class of committed instruction
system.cpu.commit.op_class_0::SimdCvt           12434      0.34%     81.11% # Class of committed instruction
system.cpu.commit.op_class_0::SimdMisc           6715      0.19%     81.30% # Class of committed instruction
system.cpu.commit.op_class_0::SimdMult              0      0.00%     81.30% # Class of committed instruction
system.cpu.commit.op_class_0::SimdMultAcc            0      0.00%     81.30% # Class of committed instruction
system.cpu.commit.op_class_0::SimdShift          1273      0.04%     81.33% # Class of committed instruction
system.cpu.commit.op_class_0::SimdShiftAcc            0      0.00%     81.33% # Class of committed instruction
system.cpu.commit.op_class_0::SimdDiv               0      0.00%     81.33% # Class of committed instruction
system.cpu.commit.op_class_0::SimdSqrt              0      0.00%     81.33% # Class of committed instruction
system.cpu.commit.op_class_0::SimdFloatAdd            0      0.00%     81.33% # Class of committed instruction
system.cpu.commit.op_class_0::SimdFloatAlu            0      0.00%     81.33% # Class of committed instruction
system.cpu.commit.op_class_0::SimdFloatCmp            0      0.00%     81.33% # Class of committed instruction
system.cpu.commit.op_class_0::SimdFloatCvt            0      0.00%     81.33% # Class of committed instruction
system.cpu.commit.op_class_0::SimdFloatDiv            0      0.00%     81.33% # Class of committed instruction
system.cpu.commit.op_class_0::SimdFloatMisc            0      0.00%     81.33% # Class of committed instruction
system.cpu.commit.op_class_0::SimdFloatMult            0      0.00%     81.33% # Class of committed instruction
system.cpu.commit.op_class_0::SimdFloatMultAcc            0      0.00%     81.33% # Class of committed instruction
system.cpu.commit.op_class_0::SimdFloatSqrt            0      0.00%     81.33% # Class of committed instruction
system.cpu.commit.op_class_0::SimdReduceAdd            0      0.00%     81.33% # Class of committed instruction
system.cpu.commit.op_class_0::SimdReduceAlu            0      0.00%     81.33% # Class of committed instruction
system.cpu.commit.op_class_0::SimdReduceCmp            0      0.00%     81.33% # Class of committed instruction
system.cpu.commit.op_class_0::SimdFloatReduceAdd            0      0.00%     81.33% # Class of committed instruction
system.cpu.commit.op_class_0::SimdFloatReduceCmp            0      0.00%     81.33% # Class of committed instruction
system.cpu.commit.op_class_0::SimdAes               0      0.00%     81.33% # Class of committed instruction
system.cpu.commit.op_class_0::SimdAesMix            0      0.00%     81.33% # Class of committed instruction
system.cpu.commit.op_class_0::SimdSha1Hash            0      0.00%     81.33% # Class of committed instruction
system.cpu.commit.op_class_0::SimdSha1Hash2            0      0.00%     81.33% # Class of committed instruction
system.cpu.commit.op_class_0::SimdSha256Hash            0      0.00%     81.33% # Class of committed instruction
system.cpu.commit.op_class_0::SimdSha256Hash2            0      0.00%     81.33% # Class of committed instruction
system.cpu.commit.op_class_0::SimdShaSigma2            0      0.00%     81.33% # Class of committed instruction
system.cpu.commit.op_class_0::SimdShaSigma3            0      0.00%     81.33% # Class of committed instruction
system.cpu.commit.op_class_0::SimdPredAlu            0      0.00%     81.33% # Class of committed instruction
system.cpu.commit.op_class_0::MemRead          480624     13.28%     94.61% # Class of committed instruction
system.cpu.commit.op_class_0::MemWrite         162669      4.49%     99.11% # Class of committed instruction
system.cpu.commit.op_class_0::FloatMemRead        19888      0.55%     99.65% # Class of committed instruction
system.cpu.commit.op_class_0::FloatMemWrite        12499      0.35%    100.00% # Class of committed instruction
system.cpu.commit.op_class_0::IprAccess             0      0.00%    100.00% # Class of committed instruction
system.cpu.commit.op_class_0::InstPrefetch            0      0.00%    100.00% # Class of committed instruction
system.cpu.commit.op_class_0::total           3619754                       # Class of committed instruction
system.cpu.commit.refs                         675680                       # Number of memory references committed
system.cpu.commit.swp_count                         0                       # Number of s/w prefetches committed
system.cpu.commit.vec_insts                         0                       # Number of committed Vector instructions.
system.cpu.committedInsts                     2075394                       # Number of Instructions Simulated
system.cpu.committedOps                       3619754                       # Number of Ops (including micro ops) Simulated
system.cpu.cpi                               1.328901                       # CPI: Cycles Per Instruction
system.cpu.cpi_total                         1.328901                       # CPI: Total CPI of All Threads
system.cpu.dcache.prefetcher.num_hwpf_issued         8226                       # number of hwpf issued
system.cpu.dcache.prefetcher.pfBufferHit        33407                       # number of redundant prefetches already in prefetch queue
system.cpu.dcache.prefetcher.pfIdentified        48556                       # number of prefetch candidates identified
system.cpu.dcache.prefetcher.pfInCache              0                       # number of redundant prefetches already in cache/mshr dropped
system.cpu.dcache.prefetcher.pfRemovedFull            0                       # number of prefetches dropped due to prefetch queue size
system.cpu.dcache.prefetcher.pfSpanPage          4692                       # number of prefetches that crossed the page
system.cpu.decode.BlockedCycles               1027571                       # Number of cycles decode is blocked
system.cpu.decode.DecodedInsts                4717040                       # Number of instructions handled by decode
system.cpu.decode.IdleCycles                   302168                       # Number of cycles decode is idle
system.cpu.decode.RunCycles                   1149397                       # Number of cycles decode is running
system.cpu.decode.SquashCycles                  24338                       # Number of cycles decode is squashing
system.cpu.decode.UnblockCycles                 86846                       # Number of cycles decode is unblocking
system.cpu.dtb.rdAccesses                      583603                       # TLB accesses on read requests
system.cpu.dtb.rdMisses                          2035                       # TLB misses on read requests
system.cpu.dtb.wrAccesses                      194362                       # TLB accesses on write requests
system.cpu.dtb.wrMisses                           170                       # TLB misses on write requests
system.cpu.fetch.Branches                      493517                       # Number of branches that fetch encountered
system.cpu.fetch.CacheLines                    243838                       # Number of cache lines fetched
system.cpu.fetch.Cycles                       2227144                       # Number of cycles fetch has run and was not squashing or blocked
system.cpu.fetch.IcacheSquashes                  5018                       # Number of outstanding Icache misses that were squashed
system.cpu.fetch.IcacheWaitRetryStallCycles           10                       # Number of stall cycles due to full MSHR
system.cpu.fetch.Insts                        2839059                       # Number of instructions fetch has processed
system.cpu.fetch.MiscStallCycles                  169                       # Number of cycles fetch has spent waiting on interrupts, or bad addresses, or out of MSHRs
system.cpu.fetch.PendingQuiesceStallCycles            9                       # Number of stall cycles due to pending quiesce instructions
system.cpu.fetch.PendingTrapStallCycles           965                       # Number of stall cycles due to pending traps
system.cpu.fetch.SquashCycles                   48676                       # Number of cycles fetch has spent squashing
system.cpu.fetch.branchRate                  0.178941                       # Number of branch fetches per cycle
system.cpu.fetch.icacheStallCycles             337685                       # Number of cycles fetch is stalled on an Icache miss
system.cpu.fetch.predictedBranches             253175                       # Number of branches that fetch has predicted taken
system.cpu.fetch.rate                        1.029393                       # Number of inst fetches per cycle
system.cpu.fetch.rateDist::samples            2590320                       # Number of instructions fetched each cycle (Total)
system.cpu.fetch.rateDist::mean              1.925396                       # Number of instructions fetched each cycle (Total)
system.cpu.fetch.rateDist::stdev             1.930234                       # Number of instructions fetched each cycle (Total)
system.cpu.fetch.rateDist::underflows               0      0.00%      0.00% # Number of instructions fetched each cycle (Total)
system.cpu.fetch.rateDist::0                  1238337     47.81%     47.81% # Number of instructions fetched each cycle (Total)
system.cpu.fetch.rateDist::1                    74317      2.87%     50.68% # Number of instructions fetched each cycle (Total)
system.cpu.fetch.rateDist::2                    59937      2.31%     52.99% # Number of instructions fetched each cycle (Total)
system.cpu.fetch.rateDist::3                    77714      3.00%     55.99% # Number of instructions fetched each cycle (Total)
system.cpu.fetch.rateDist::4                  1140015     44.01%    100.00% # Number of instructions fetched each cycle (Total)
system.cpu.fetch.rateDist::overflows                0      0.00%    100.00% # Number of instructions fetched each cycle (Total)
system.cpu.fetch.rateDist::min_value                0                       # Number of instructions fetched each cycle (Total)
system.cpu.fetch.rateDist::max_value                4                       # Number of instructions fetched each cycle (Total)
system.cpu.fetch.rateDist::total              2590320                       # Number of instructions fetched each cycle (Total)
system.cpu.fp_regfile_reads                    122137                       # number of floating regfile reads
system.cpu.fp_regfile_writes                    67520                       # number of floating regfile writes
system.cpu.fuPool.fu_ticks_busy::IntALU(0)    218122000                       # Total ticks fu was busy
system.cpu.fuPool.fu_ticks_busy::IntALU(1)    218121600                       # Total ticks fu was busy
system.cpu.fuPool.fu_ticks_busy::IntALU(2)    218121600                       # Total ticks fu was busy
system.cpu.fuPool.fu_ticks_busy::IntALU(3)    218121600                       # Total ticks fu was busy
system.cpu.fuPool.fu_ticks_busy::IntALU(4)    218121600                       # Total ticks fu was busy
system.cpu.fuPool.fu_ticks_busy::IntALU(5)    218121600                       # Total ticks fu was busy
system.cpu.fuPool.fu_ticks_busy::IntMultDiv(0)      8430400                       # Total ticks fu was busy
system.cpu.fuPool.fu_ticks_busy::IntMultDiv(1)      8430000                       # Total ticks fu was busy
system.cpu.fuPool.fu_ticks_busy::FP_ALU(0)       609600                       # Total ticks fu was busy
system.cpu.fuPool.fu_ticks_busy::FP_ALU(1)       609200                       # Total ticks fu was busy
system.cpu.fuPool.fu_ticks_busy::FP_ALU(2)       609200                       # Total ticks fu was busy
system.cpu.fuPool.fu_ticks_busy::FP_ALU(3)       609200                       # Total ticks fu was busy
system.cpu.fuPool.fu_ticks_busy::FP_MultDiv(0)            0                       # Total ticks fu was busy
system.cpu.fuPool.fu_ticks_busy::FP_MultDiv(1)            0                       # Total ticks fu was busy
system.cpu.fuPool.fu_ticks_busy::SIMD_Unit(0)      4561200                       # Total ticks fu was busy
system.cpu.fuPool.fu_ticks_busy::SIMD_Unit(1)      4607600                       # Total ticks fu was busy
system.cpu.fuPool.fu_ticks_busy::SIMD_Unit(2)      4575600                       # Total ticks fu was busy
system.cpu.fuPool.fu_ticks_busy::SIMD_Unit(3)      4538400                       # Total ticks fu was busy
system.cpu.fuPool.fu_ticks_busy::PredALU(0)            0                       # Total ticks fu was busy
system.cpu.fuPool.fu_ticks_busy::RdWrPort(0)     79232400                       # Total ticks fu was busy
system.cpu.fuPool.fu_ticks_busy::RdWrPort(1)     79264000                       # Total ticks fu was busy
system.cpu.fuPool.fu_ticks_busy::RdWrPort(2)     79267600                       # Total ticks fu was busy
system.cpu.fuPool.fu_ticks_busy::RdWrPort(3)     79273600                       # Total ticks fu was busy
system.cpu.fuPool.fu_ticks_busy::IprPort(0)            0                       # Total ticks fu was busy
system.cpu.fuPool.fu_ticks_busy::total     1663348000                       # Total ticks fu was busy
system.cpu.icache.prefetcher.num_hwpf_issued            0                       # number of hwpf issued
system.cpu.icache.prefetcher.pfBufferHit            0                       # number of redundant prefetches already in prefetch queue
system.cpu.icache.prefetcher.pfIdentified            0                       # number of prefetch candidates identified
system.cpu.icache.prefetcher.pfInCache              0                       # number of redundant prefetches already in cache/mshr dropped
system.cpu.icache.prefetcher.pfRemovedFull            0                       # number of prefetches dropped due to prefetch queue size
system.cpu.icache.prefetcher.pfSpanPage             0                       # number of prefetches that crossed the page
system.cpu.idleCycles                          167673                       # Total number of cycles that the CPU has spent unscheduled due to idling
system.cpu.iew.branchMispredicts                28661                       # Number of branch mispredicts detected at execute
system.cpu.iew.exec_branches                   380821                       # Number of branches executed
system.cpu.iew.exec_nop                             0                       # number of nop insts executed
system.cpu.iew.exec_rate                     1.505108                       # Inst execution rate
system.cpu.iew.exec_refs                       779671                       # number of memory reference insts executed
system.cpu.iew.exec_stores                     194347                       # Number of stores executed
system.cpu.iew.exec_swp                             0                       # number of swp insts executed
system.cpu.iew.iewBlockCycles                  702551                       # Number of cycles IEW is blocking
system.cpu.iew.iewDispLoadInsts                616276                       # Number of dispatched load instructions
system.cpu.iew.iewDispNonSpecInsts               1120                       # Number of dispatched non-speculative instructions
system.cpu.iew.iewDispSquashedInsts               543                       # Number of squashed instructions skipped by dispatch
system.cpu.iew.iewDispStoreInsts               204938                       # Number of dispatched store instructions
system.cpu.iew.iewDispatchedInsts             4504576                       # Number of instructions dispatched to IQ
system.cpu.iew.iewExecLoadInsts                585324                       # Number of load instructions executed
system.cpu.iew.iewExecSquashedInsts             34296                       # Number of squashed instructions skipped in execute
system.cpu.iew.iewExecutedInsts               4151078                       # Number of executed instructions
system.cpu.iew.iewIQFullEvents                   3327                       # Number of times the IQ has become full, causing a stall
system.cpu.iew.iewIdleCycles                        0                       # Number of cycles IEW is idle
system.cpu.iew.iewLSQFullEvents                 10302                       # Number of times the LSQ has become full, causing a stall
system.cpu.iew.iewSquashCycles                  24338                       # Number of cycles IEW is squashing
system.cpu.iew.iewUnblockCycles                 16515                       # Number of cycles IEW is unblocking
system.cpu.iew.lsq.thread0.blockedLoads             0                       # Number of blocked loads due to partial load-store forwarding
system.cpu.iew.lsq.thread0.cacheBlocked           594                       # Number of times an access to memory failed due to the cache being blocked
system.cpu.iew.lsq.thread0.forwLoads            39294                       # Number of loads that had data forwarded from stores
system.cpu.iew.lsq.thread0.ignoredResponses          251                       # Number of memory responses ignored because the instruction is squashed
system.cpu.iew.lsq.thread0.invAddrLoads             0                       # Number of loads ignored due to an invalid address
system.cpu.iew.lsq.thread0.invAddrSwpfs             0                       # Number of software prefetches ignored due to an invalid address
system.cpu.iew.lsq.thread0.memOrderViolation           73                       # Number of memory ordering violations
system.cpu.iew.lsq.thread0.rescheduledLoads            0                       # Number of loads that were rescheduled
system.cpu.iew.lsq.thread0.squashedLoads       115762                       # Number of loads squashed
system.cpu.iew.lsq.thread0.squashedStores        29769                       # Number of stores squashed
system.cpu.iew.memOrderViolationEvents             73                       # Number of memory order violations
system.cpu.iew.predictedNotTakenIncorrect        20396                       # Number of branches that were predicted not taken incorrectly
system.cpu.iew.predictedTakenIncorrect           8265                       # Number of branches that were predicted taken incorrectly
system.cpu.iew.wb_consumers                   5790409                       # num instructions consuming a value
system.cpu.iew.wb_count                       4128755                       # cumulative count of insts written-back
system.cpu.iew.wb_fanout                     0.568149                       # average fanout of values written-back
system.cpu.iew.wb_producers                   3289814                       # num instructions producing a value
system.cpu.iew.wb_rate                       1.497014                       # insts written-back per cycle
system.cpu.iew.wb_sent                        4135683                       # cumulative count of insts sent to commit
system.cpu.int_regfile_reads                  6426900                       # number of integer regfile reads
system.cpu.int_regfile_writes                 3561507                       # number of integer regfile writes
system.cpu.ipc                               0.752502                       # IPC: Instructions Per Cycle
system.cpu.ipc_total                         0.752502                       # IPC: Total IPC of All Threads
system.cpu.iq.FU_type_0::No_OpClass             27004      0.65%      0.65% # Type of FU issued
system.cpu.iq.FU_type_0::IntAlu               3271826     78.17%     78.82% # Type of FU issued
system.cpu.iq.FU_type_0::IntMult                  154      0.00%     78.82% # Type of FU issued
system.cpu.iq.FU_type_0::IntDiv                 41997      1.00%     79.83% # Type of FU issued
system.cpu.iq.FU_type_0::FloatAdd                4657      0.11%     79.94% # Type of FU issued
system.cpu.iq.FU_type_0::FloatCmp                   0      0.00%     79.94% # Type of FU issued
system.cpu.iq.FU_type_0::FloatCvt                1436      0.03%     79.97% # Type of FU issued
system.cpu.iq.FU_type_0::FloatMult                  0      0.00%     79.97% # Type of FU issued
system.cpu.iq.FU_type_0::FloatMultAcc               0      0.00%     79.97% # Type of FU issued
system.cpu.iq.FU_type_0::FloatDiv                   0      0.00%     79.97% # Type of FU issued
system.cpu.iq.FU_type_0::FloatMisc                  0      0.00%     79.97% # Type of FU issued
system.cpu.iq.FU_type_0::FloatSqrt                  0      0.00%     79.97% # Type of FU issued
system.cpu.iq.FU_type_0::SimdAdd                 6933      0.17%     80.14% # Type of FU issued
system.cpu.iq.FU_type_0::SimdAddAcc                 0      0.00%     80.14% # Type of FU issued
system.cpu.iq.FU_type_0::SimdAlu                14973      0.36%     80.49% # Type of FU issued
system.cpu.iq.FU_type_0::SimdCmp                    0      0.00%     80.49% # Type of FU issued
system.cpu.iq.FU_type_0::SimdCvt                14085      0.34%     80.83% # Type of FU issued
system.cpu.iq.FU_type_0::SimdMisc                7262      0.17%     81.00% # Type of FU issued
system.cpu.iq.FU_type_0::SimdMult                   0      0.00%     81.00% # Type of FU issued
system.cpu.iq.FU_type_0::SimdMultAcc                0      0.00%     81.00% # Type of FU issued
system.cpu.iq.FU_type_0::SimdShift               2454      0.06%     81.06% # Type of FU issued
system.cpu.iq.FU_type_0::SimdShiftAcc               0      0.00%     81.06% # Type of FU issued
system.cpu.iq.FU_type_0::SimdDiv                    0      0.00%     81.06% # Type of FU issued
system.cpu.iq.FU_type_0::SimdSqrt                   0      0.00%     81.06% # Type of FU issued
system.cpu.iq.FU_type_0::SimdFloatAdd               0      0.00%     81.06% # Type of FU issued
system.cpu.iq.FU_type_0::SimdFloatAlu               0      0.00%     81.06% # Type of FU issued
system.cpu.iq.FU_type_0::SimdFloatCmp               0      0.00%     81.06% # Type of FU issued
system.cpu.iq.FU_type_0::SimdFloatCvt               0      0.00%     81.06% # Type of FU issued
system.cpu.iq.FU_type_0::SimdFloatDiv               0      0.00%     81.06% # Type of FU issued
system.cpu.iq.FU_type_0::SimdFloatMisc              0      0.00%     81.06% # Type of FU issued
system.cpu.iq.FU_type_0::SimdFloatMult              0      0.00%     81.06% # Type of FU issued
system.cpu.iq.FU_type_0::SimdFloatMultAcc            0      0.00%     81.06% # Type of FU issued
system.cpu.iq.FU_type_0::SimdFloatSqrt              0      0.00%     81.06% # Type of FU issued
system.cpu.iq.FU_type_0::SimdReduceAdd              0      0.00%     81.06% # Type of FU issued
system.cpu.iq.FU_type_0::SimdReduceAlu              0      0.00%     81.06% # Type of FU issued
system.cpu.iq.FU_type_0::SimdReduceCmp              0      0.00%     81.06% # Type of FU issued
system.cpu.iq.FU_type_0::SimdFloatReduceAdd            0      0.00%     81.06% # Type of FU issued
system.cpu.iq.FU_type_0::SimdFloatReduceCmp            0      0.00%     81.06% # Type of FU issued
system.cpu.iq.FU_type_0::SimdAes                    0      0.00%     81.06% # Type of FU issued
system.cpu.iq.FU_type_0::SimdAesMix                 0      0.00%     81.06% # Type of FU issued
system.cpu.iq.FU_type_0::SimdSha1Hash               0      0.00%     81.06% # Type of FU issued
system.cpu.iq.FU_type_0::SimdSha1Hash2              0      0.00%     81.06% # Type of FU issued
system.cpu.iq.FU_type_0::SimdSha256Hash             0      0.00%     81.06% # Type of FU issued
system.cpu.iq.FU_type_0::SimdSha256Hash2            0      0.00%     81.06% # Type of FU issued
system.cpu.iq.FU_type_0::SimdShaSigma2              0      0.00%     81.06% # Type of FU issued
system.cpu.iq.FU_type_0::SimdShaSigma3              0      0.00%     81.06% # Type of FU issued
system.cpu.iq.FU_type_0::SimdPredAlu                0      0.00%     81.06% # Type of FU issued
system.cpu.iq.FU_type_0::MemRead               569739     13.61%     94.68% # Type of FU issued
system.cpu.iq.FU_type_0::MemWrite              183471      4.38%     99.06% # Type of FU issued
system.cpu.iq.FU_type_0::FloatMemRead           25798      0.62%     99.68% # Type of FU issued
system.cpu.iq.FU_type_0::FloatMemWrite          13588      0.32%    100.00% # Type of FU issued
system.cpu.iq.FU_type_0::IprAccess                  0      0.00%    100.00% # Type of FU issued
system.cpu.iq.FU_type_0::InstPrefetch               0      0.00%    100.00% # Type of FU issued
system.cpu.iq.FU_type_0::total                4185377                       # Type of FU issued
system.cpu.iq.fp_alu_accesses                   92257                       # Number of floating point alu accesses
system.cpu.iq.fp_inst_queue_reads              185874                       # Number of floating instruction queue reads
system.cpu.iq.fp_inst_queue_wakeup_accesses        88779                       # Number of floating instruction queue wakeup accesses
system.cpu.iq.fp_inst_queue_writes             134059                       # Number of floating instruction queue writes
system.cpu.iq.fu_busy_cnt                           0                       # FU busy when requested
system.cpu.iq.fu_busy_rate                          0                       # FU busy rate (busy events/executed inst)
system.cpu.iq.fu_full::No_OpClass                   0                       # attempts to use FU when none available
system.cpu.iq.fu_full::IntAlu                       0                       # attempts to use FU when none available
system.cpu.iq.fu_full::IntMult                      0                       # attempts to use FU when none available
system.cpu.iq.fu_full::IntDiv                       0                       # attempts to use FU when none available
system.cpu.iq.fu_full::FloatAdd                     0                       # attempts to use FU when none available
system.cpu.iq.fu_full::FloatCmp                     0                       # attempts to use FU when none available
system.cpu.iq.fu_full::FloatCvt                     0                       # attempts to use FU when none available
system.cpu.iq.fu_full::FloatMult                    0                       # attempts to use FU when none available
system.cpu.iq.fu_full::FloatMultAcc                 0                       # attempts to use FU when none available
system.cpu.iq.fu_full::FloatDiv                     0                       # attempts to use FU when none available
system.cpu.iq.fu_full::FloatMisc                    0                       # attempts to use FU when none available
system.cpu.iq.fu_full::FloatSqrt                    0                       # attempts to use FU when none available
system.cpu.iq.fu_full::SimdAdd                      0                       # attempts to use FU when none available
system.cpu.iq.fu_full::SimdAddAcc                   0                       # attempts to use FU when none available
system.cpu.iq.fu_full::SimdAlu                      0                       # attempts to use FU when none available
system.cpu.iq.fu_full::SimdCmp                      0                       # attempts to use FU when none available
system.cpu.iq.fu_full::SimdCvt                      0                       # attempts to use FU when none available
system.cpu.iq.fu_full::SimdMisc                     0                       # attempts to use FU when none available
system.cpu.iq.fu_full::SimdMult                     0                       # attempts to use FU when none available
system.cpu.iq.fu_full::SimdMultAcc                  0                       # attempts to use FU when none available
system.cpu.iq.fu_full::SimdShift                    0                       # attempts to use FU when none available
system.cpu.iq.fu_full::SimdShiftAcc                 0                       # attempts to use FU when none available
system.cpu.iq.fu_full::SimdDiv                      0                       # attempts to use FU when none available
system.cpu.iq.fu_full::SimdSqrt                     0                       # attempts to use FU when none available
system.cpu.iq.fu_full::SimdFloatAdd                 0                       # attempts to use FU when none available
system.cpu.iq.fu_full::SimdFloatAlu                 0                       # attempts to use FU when none available
system.cpu.iq.fu_full::SimdFloatCmp                 0                       # attempts to use FU when none available
system.cpu.iq.fu_full::SimdFloatCvt                 0                       # attempts to use FU when none available
system.cpu.iq.fu_full::SimdFloatDiv                 0                       # attempts to use FU when none available
system.cpu.iq.fu_full::SimdFloatMisc                0                       # attempts to use FU when none available
system.cpu.iq.fu_full::SimdFloatMult                0                       # attempts to use FU when none available
system.cpu.iq.fu_full::SimdFloatMultAcc             0                       # attempts to use FU when none available
system.cpu.iq.fu_full::SimdFloatSqrt                0                       # attempts to use FU when none available
system.cpu.iq.fu_full::SimdReduceAdd                0                       # attempts to use FU when none available
system.cpu.iq.fu_full::SimdReduceAlu                0                       # attempts to use FU when none available
system.cpu.iq.fu_full::SimdReduceCmp                0                       # attempts to use FU when none available
system.cpu.iq.fu_full::SimdFloatReduceAdd            0                       # attempts to use FU when none available
system.cpu.iq.fu_full::SimdFloatReduceCmp            0                       # attempts to use FU when none available
system.cpu.iq.fu_full::SimdAes                      0                       # attempts to use FU when none available
system.cpu.iq.fu_full::SimdAesMix                   0                       # attempts to use FU when none available
system.cpu.iq.fu_full::SimdSha1Hash                 0                       # attempts to use FU when none available
system.cpu.iq.fu_full::SimdSha1Hash2                0                       # attempts to use FU when none available
system.cpu.iq.fu_full::SimdSha256Hash               0                       # attempts to use FU when none available
system.cpu.iq.fu_full::SimdSha256Hash2              0                       # attempts to use FU when none available
system.cpu.iq.fu_full::SimdShaSigma2                0                       # attempts to use FU when none available
system.cpu.iq.fu_full::SimdShaSigma3                0                       # attempts to use FU when none available
system.cpu.iq.fu_full::SimdPredAlu                  0                       # attempts to use FU when none available
system.cpu.iq.fu_full::MemRead                      0                       # attempts to use FU when none available
system.cpu.iq.fu_full::MemWrite                     0                       # attempts to use FU when none available
system.cpu.iq.fu_full::FloatMemRead                 0                       # attempts to use FU when none available
system.cpu.iq.fu_full::FloatMemWrite                0                       # attempts to use FU when none available
system.cpu.iq.fu_full::IprAccess                    0                       # attempts to use FU when none available
system.cpu.iq.fu_full::InstPrefetch                 0                       # attempts to use FU when none available
system.cpu.iq.int_alu_accesses                4066116                       # Number of integer alu accesses
system.cpu.iq.int_inst_queue_reads           10793530                       # Number of integer instruction queue reads
system.cpu.iq.int_inst_queue_wakeup_accesses      4039976                       # Number of integer instruction queue wakeup accesses
system.cpu.iq.int_inst_queue_writes           5255401                       # Number of integer instruction queue writes
system.cpu.iq.iqInstsAdded                    4503123                       # Number of instructions added to the IQ (excludes non-spec)
system.cpu.iq.iqInstsIssued                   4185377                       # Number of instructions issued
system.cpu.iq.iqNonSpecInstsAdded                1453                       # Number of non-speculative instructions added to the IQ
system.cpu.iq.iqSquashedInstsExamined          884811                       # Number of squashed instructions iterated over during squash; mainly for profiling
system.cpu.iq.iqSquashedInstsIssued             18333                       # Number of squashed instructions issued
system.cpu.iq.iqSquashedNonSpecRemoved            611                       # Number of squashed non-spec instructions that were removed
system.cpu.iq.iqSquashedOperandsExamined      1313563                       # Number of squashed operands that are examined and possibly removed from graph
system.cpu.iq.issued_per_cycle::samples       2590320                       # Number of insts issued each cycle
system.cpu.iq.issued_per_cycle::mean         1.615776                       # Number of insts issued each cycle
system.cpu.iq.issued_per_cycle::stdev        1.672092                       # Number of insts issued each cycle
system.cpu.iq.issued_per_cycle::underflows            0      0.00%      0.00% # Number of insts issued each cycle
system.cpu.iq.issued_per_cycle::0             1180008     45.55%     45.55% # Number of insts issued each cycle
system.cpu.iq.issued_per_cycle::1              171894      6.64%     52.19% # Number of insts issued each cycle
system.cpu.iq.issued_per_cycle::2              299811     11.57%     63.76% # Number of insts issued each cycle
system.cpu.iq.issued_per_cycle::3              340567     13.15%     76.91% # Number of insts issued each cycle
system.cpu.iq.issued_per_cycle::4              598040     23.09%    100.00% # Number of insts issued each cycle
system.cpu.iq.issued_per_cycle::overflows            0      0.00%    100.00% # Number of insts issued each cycle
system.cpu.iq.issued_per_cycle::min_value            0                       # Number of insts issued each cycle
system.cpu.iq.issued_per_cycle::max_value            4                       # Number of insts issued each cycle
system.cpu.iq.issued_per_cycle::total         2590320                       # Number of insts issued each cycle
system.cpu.iq.rate                           1.517544                       # Inst issue rate
system.cpu.iq.vec_alu_accesses                      0                       # Number of vector alu accesses
system.cpu.iq.vec_inst_queue_reads                  0                       # Number of vector instruction queue reads
system.cpu.iq.vec_inst_queue_wakeup_accesses            0                       # Number of vector instruction queue wakeup accesses
system.cpu.iq.vec_inst_queue_writes                 0                       # Number of vector instruction queue writes
system.cpu.itb.rdAccesses                           0                       # TLB accesses on read requests
system.cpu.itb.rdMisses                             0                       # TLB misses on read requests
system.cpu.itb.wrAccesses                      243981                       # TLB accesses on write requests
system.cpu.itb.wrMisses                           404                       # TLB misses on write requests
system.cpu.memDep0.conflictingLoads              8322                       # Number of conflicting loads.
system.cpu.memDep0.conflictingStores             3002                       # Number of conflicting stores.
system.cpu.memDep0.insertedLoads               616276                       # Number of loads inserted to the mem dependence unit.
system.cpu.memDep0.insertedStores              204938                       # Number of stores inserted to the mem dependence unit.
system.cpu.misc_regfile_reads                 1576110                       # number of misc regfile reads
system.cpu.misc_regfile_writes                    774                       # number of misc regfile writes
system.cpu.numCycles                          2757993                       # number of cpu cycles simulated
system.cpu.numWorkItemsCompleted                    0                       # number of work items this cpu completed
system.cpu.numWorkItemsStarted                      0                       # number of work items this cpu started
system.cpu.process.numSyscalls                     67                       # Number of system calls
system.cpu.rename.BlockCycles                  846317                       # Number of cycles rename is blocking
system.cpu.rename.CommittedMaps               4933139                       # Number of HB maps that are committed
system.cpu.rename.FullRegisterEvents               19                       # Number of times there has been no free registers
system.cpu.rename.IQFullEvents                  43614                       # Number of times rename has blocked due to IQ full
system.cpu.rename.IdleCycles                   351271                       # Number of cycles rename is idle
system.cpu.rename.LQFullEvents                  15238                       # Number of times rename has blocked due to LQ full
system.cpu.rename.ROBFullEvents                  6005                       # Number of times rename has blocked due to ROB full
system.cpu.rename.RenameLookups              12123864                       # Number of register rename lookups that rename has made
system.cpu.rename.RenamedInsts                4643029                       # Number of instructions processed by rename
system.cpu.rename.RenamedOperands             6317078                       # Number of destination operands rename has renamed
system.cpu.rename.RunCycles                   1178827                       # Number of cycles rename is running
system.cpu.rename.SQFullEvents                  72440                       # Number of times rename has blocked due to SQ full
system.cpu.rename.SquashCycles                  24338                       # Number of cycles rename is squashing
system.cpu.rename.UnblockCycles                168108                       # Number of cycles rename is unblocking
system.cpu.rename.UndoneMaps                  1383916                       # Number of HB maps that are undone due to squashing
system.cpu.rename.fp_rename_lookups            158497                       # Number of floating rename lookups
system.cpu.rename.int_rename_lookups          7359952                       # Number of integer rename lookups
system.cpu.rename.serializeStallCycles          21459                       # count of cycles rename stalled for serializing inst
system.cpu.rename.serializingInsts                988                       # count of serializing insts renamed
system.cpu.rename.skidInsts                    200908                       # count of insts added to the skid buffer
system.cpu.rename.tempSerializingInsts           1047                       # count of temporary serializing insts renamed
system.cpu.rob.rob_reads                      6249951                       # The number of ROB reads
system.cpu.rob.rob_writes                     9251647                       # The number of ROB writes
system.cpu.timesIdled                            1717                       # Number of times that the entire CPU went into an idle state and unscheduled itself
system.l2bus.snoop_filter.hit_multi_requests           16                       # Number of requests hitting in the snoop filter with multiple (>1) holders of the requested data.
system.l2bus.snoop_filter.hit_multi_snoops            0                       # Number of snoops hitting in the snoop filter with multiple (>1) holders of the requested data.
system.l2bus.snoop_filter.hit_single_requests        18914                       # Number of requests hitting in the snoop filter with a single holder of the requested data.
system.l2bus.snoop_filter.hit_single_snoops          434                       # Number of snoops hitting in the snoop filter with a single holder of the requested data.
system.l2bus.snoop_filter.tot_requests          39108                       # Total number of requests made to the snoop filter.
system.l2bus.snoop_filter.tot_snoops              434                       # Total number of snoops made to the snoop filter.
system.l2cache.prefetcher.num_hwpf_issued          633                       # number of hwpf issued
system.l2cache.prefetcher.pfBufferHit               0                       # number of redundant prefetches already in prefetch queue
system.l2cache.prefetcher.pfIdentified            633                       # number of prefetch candidates identified
system.l2cache.prefetcher.pfInCache                 0                       # number of redundant prefetches already in cache/mshr dropped
system.l2cache.prefetcher.pfRemovedFull             0                       # number of prefetches dropped due to prefetch queue size
system.l2cache.prefetcher.pfSpanPage               99                       # number of prefetches that crossed the page
system.membus.snoop_filter.hit_multi_requests            0                       # Number of requests hitting in the snoop filter with multiple (>1) holders of the requested data.
system.membus.snoop_filter.hit_multi_snoops            0                       # Number of snoops hitting in the snoop filter with multiple (>1) holders of the requested data.
system.membus.snoop_filter.hit_single_requests         9542                       # Number of requests hitting in the snoop filter with a single holder of the requested data.
system.membus.snoop_filter.hit_single_snoops            0                       # Number of snoops hitting in the snoop filter with a single holder of the requested data.
system.membus.snoop_filter.tot_requests         23210                       # Total number of requests made to the snoop filter.
system.membus.snoop_filter.tot_snoops               0                       # Total number of snoops made to the snoop filter.
system.membus.pwrStateResidencyTicks::UNDEFINED   1103196800                       # Cumulative time (in ticks) in various power states
system.membus.trans_dist::ReadResp              12356                       # Transaction distribution
system.membus.trans_dist::WritebackDirty         1358                       # Transaction distribution
system.membus.trans_dist::CleanEvict             8184                       # Transaction distribution
system.membus.trans_dist::ReadExReq              1312                       # Transaction distribution
system.membus.trans_dist::ReadExResp             1312                       # Transaction distribution
system.membus.trans_dist::ReadSharedReq         12356                       # Transaction distribution
system.membus.pkt_count_system.l2cache.mem_side::system.mem_ctrl.port        36878                       # Packet count per connected master and slave (bytes)
system.membus.pkt_count_system.l2cache.mem_side::total        36878                       # Packet count per connected master and slave (bytes)
system.membus.pkt_count::total                  36878                       # Packet count per connected master and slave (bytes)
system.membus.pkt_size_system.l2cache.mem_side::system.mem_ctrl.port       961664                       # Cumulative packet size per connected master and slave (bytes)
system.membus.pkt_size_system.l2cache.mem_side::total       961664                       # Cumulative packet size per connected master and slave (bytes)
system.membus.pkt_size::total                  961664                       # Cumulative packet size per connected master and slave (bytes)
system.membus.snoops                                0                       # Total snoops (count)
system.membus.snoopTraffic                          0                       # Total snoop traffic (bytes)
system.membus.snoop_fanout::samples             13668                       # Request fanout histogram
system.membus.snoop_fanout::mean                    0                       # Request fanout histogram
system.membus.snoop_fanout::stdev                   0                       # Request fanout histogram
system.membus.snoop_fanout::underflows              0      0.00%      0.00% # Request fanout histogram
system.membus.snoop_fanout::0                   13668    100.00%    100.00% # Request fanout histogram
system.membus.snoop_fanout::1                       0      0.00%    100.00% # Request fanout histogram
system.membus.snoop_fanout::overflows               0      0.00%    100.00% # Request fanout histogram
system.membus.snoop_fanout::min_value               0                       # Request fanout histogram
system.membus.snoop_fanout::max_value               0                       # Request fanout histogram
system.membus.snoop_fanout::total               13668                       # Request fanout histogram
system.membus.reqLayer2.occupancy            11479765                       # Layer occupancy (ticks)
system.membus.reqLayer2.utilization               1.0                       # Layer utilization (%)
system.membus.respLayer0.occupancy           29667935                       # Layer occupancy (ticks)
system.membus.respLayer0.utilization              2.7                       # Layer utilization (%)
system.l2bus.pwrStateResidencyTicks::UNDEFINED   1103196800                       # Cumulative time (in ticks) in various power states
system.l2bus.trans_dist::ReadResp               18143                       # Transaction distribution
system.l2bus.trans_dist::WritebackDirty          4154                       # Transaction distribution
system.l2bus.trans_dist::CleanEvict             24393                       # Transaction distribution
system.l2bus.trans_dist::HardPFReq                925                       # Transaction distribution
system.l2bus.trans_dist::ReadExReq               2051                       # Transaction distribution
system.l2bus.trans_dist::ReadExResp              2051                       # Transaction distribution
system.l2bus.trans_dist::ReadSharedReq          18143                       # Transaction distribution
system.l2bus.pkt_count_system.cpu.icache.mem_side::system.l2cache.cpu_side         8877                       # Packet count per connected master and slave (bytes)
system.l2bus.pkt_count_system.cpu.dcache.mem_side::system.l2cache.cpu_side        50423                       # Packet count per connected master and slave (bytes)
system.l2bus.pkt_count::total                   59300                       # Packet count per connected master and slave (bytes)
system.l2bus.pkt_size_system.cpu.icache.mem_side::system.l2cache.cpu_side       194752                       # Cumulative packet size per connected master and slave (bytes)
system.l2bus.pkt_size_system.cpu.dcache.mem_side::system.l2cache.cpu_side      1276480                       # Cumulative packet size per connected master and slave (bytes)
system.l2bus.pkt_size::total                  1471232                       # Cumulative packet size per connected master and slave (bytes)
system.l2bus.snoops                             10560                       # Total snoops (count)
system.l2bus.snoopTraffic                       87040                       # Total snoop traffic (bytes)
system.l2bus.snoop_fanout::samples              30752                       # Request fanout histogram
system.l2bus.snoop_fanout::mean              0.014633                       # Request fanout histogram
system.l2bus.snoop_fanout::stdev             0.120081                       # Request fanout histogram
system.l2bus.snoop_fanout::underflows               0      0.00%      0.00% # Request fanout histogram
system.l2bus.snoop_fanout::0                    30302     98.54%     98.54% # Request fanout histogram
system.l2bus.snoop_fanout::1                      450      1.46%    100.00% # Request fanout histogram
system.l2bus.snoop_fanout::2                        0      0.00%    100.00% # Request fanout histogram
system.l2bus.snoop_fanout::overflows                0      0.00%    100.00% # Request fanout histogram
system.l2bus.snoop_fanout::min_value                0                       # Request fanout histogram
system.l2bus.snoop_fanout::max_value                1                       # Request fanout histogram
system.l2bus.snoop_fanout::total                30752                       # Request fanout histogram
system.l2bus.respLayer1.occupancy            20579598                       # Layer occupancy (ticks)
system.l2bus.respLayer1.utilization               1.9                       # Layer utilization (%)
system.l2bus.reqLayer0.occupancy             19337776                       # Layer occupancy (ticks)
system.l2bus.reqLayer0.utilization                1.8                       # Layer utilization (%)
system.l2bus.respLayer0.occupancy             3654399                       # Layer occupancy (ticks)
system.l2bus.respLayer0.utilization               0.3                       # Layer utilization (%)
system.clk_domain.clock                           400                       # Clock period in ticks
system.clk_domain.voltage_domain.voltage            1                       # Voltage in Volts
system.cpu.pwrStateResidencyTicks::ON      1103196800                       # Cumulative time (in ticks) in various power states
system.cpu.icache.pwrStateResidencyTicks::UNDEFINED   1103196800                       # Cumulative time (in ticks) in various power states
system.cpu.icache.demand_hits::.cpu.inst       240049                       # number of demand (read+write) hits
system.cpu.icache.demand_hits::total           240049                       # number of demand (read+write) hits
system.cpu.icache.overall_hits::.cpu.inst       240049                       # number of overall hits
system.cpu.icache.overall_hits::total          240049                       # number of overall hits
system.cpu.icache.demand_misses::.cpu.inst         3788                       # number of demand (read+write) misses
system.cpu.icache.demand_misses::total           3788                       # number of demand (read+write) misses
system.cpu.icache.overall_misses::.cpu.inst         3788                       # number of overall misses
system.cpu.icache.overall_misses::total          3788                       # number of overall misses
system.cpu.icache.demand_miss_latency::.cpu.inst    184570800                       # number of demand (read+write) miss cycles
system.cpu.icache.demand_miss_latency::total    184570800                       # number of demand (read+write) miss cycles
system.cpu.icache.overall_miss_latency::.cpu.inst    184570800                       # number of overall miss cycles
system.cpu.icache.overall_miss_latency::total    184570800                       # number of overall miss cycles
system.cpu.icache.demand_accesses::.cpu.inst       243837                       # number of demand (read+write) accesses
system.cpu.icache.demand_accesses::total       243837                       # number of demand (read+write) accesses
system.cpu.icache.overall_accesses::.cpu.inst       243837                       # number of overall (read+write) accesses
system.cpu.icache.overall_accesses::total       243837                       # number of overall (read+write) accesses
system.cpu.icache.demand_miss_rate::.cpu.inst     0.015535                       # miss rate for demand accesses
system.cpu.icache.demand_miss_rate::total     0.015535                       # miss rate for demand accesses
system.cpu.icache.overall_miss_rate::.cpu.inst     0.015535                       # miss rate for overall accesses
system.cpu.icache.overall_miss_rate::total     0.015535                       # miss rate for overall accesses
system.cpu.icache.demand_avg_miss_latency::.cpu.inst 48725.131996                       # average overall miss latency
system.cpu.icache.demand_avg_miss_latency::total 48725.131996                       # average overall miss latency
system.cpu.icache.overall_avg_miss_latency::.cpu.inst 48725.131996                       # average overall miss latency
system.cpu.icache.overall_avg_miss_latency::total 48725.131996                       # average overall miss latency
system.cpu.icache.blocked_cycles::no_mshrs          180                       # number of cycles access was blocked
system.cpu.icache.blocked_cycles::no_targets            0                       # number of cycles access was blocked
system.cpu.icache.blocked::no_mshrs                 5                       # number of cycles access was blocked
system.cpu.icache.blocked::no_targets               0                       # number of cycles access was blocked
system.cpu.icache.avg_blocked_cycles::no_mshrs           36                       # average number of cycles each access was blocked
system.cpu.icache.avg_blocked_cycles::no_targets          nan                       # average number of cycles each access was blocked
system.cpu.icache.demand_mshr_hits::.cpu.inst          743                       # number of demand (read+write) MSHR hits
system.cpu.icache.demand_mshr_hits::total          743                       # number of demand (read+write) MSHR hits
system.cpu.icache.overall_mshr_hits::.cpu.inst          743                       # number of overall MSHR hits
system.cpu.icache.overall_mshr_hits::total          743                       # number of overall MSHR hits
system.cpu.icache.demand_mshr_misses::.cpu.inst         3045                       # number of demand (read+write) MSHR misses
system.cpu.icache.demand_mshr_misses::total         3045                       # number of demand (read+write) MSHR misses
system.cpu.icache.overall_mshr_misses::.cpu.inst         3045                       # number of overall MSHR misses
system.cpu.icache.overall_mshr_misses::total         3045                       # number of overall MSHR misses
system.cpu.icache.demand_mshr_miss_latency::.cpu.inst    148723600                       # number of demand (read+write) MSHR miss cycles
system.cpu.icache.demand_mshr_miss_latency::total    148723600                       # number of demand (read+write) MSHR miss cycles
system.cpu.icache.overall_mshr_miss_latency::.cpu.inst    148723600                       # number of overall MSHR miss cycles
system.cpu.icache.overall_mshr_miss_latency::total    148723600                       # number of overall MSHR miss cycles
system.cpu.icache.demand_mshr_miss_rate::.cpu.inst     0.012488                       # mshr miss rate for demand accesses
system.cpu.icache.demand_mshr_miss_rate::total     0.012488                       # mshr miss rate for demand accesses
system.cpu.icache.overall_mshr_miss_rate::.cpu.inst     0.012488                       # mshr miss rate for overall accesses
system.cpu.icache.overall_mshr_miss_rate::total     0.012488                       # mshr miss rate for overall accesses
system.cpu.icache.demand_avg_mshr_miss_latency::.cpu.inst 48841.904762                       # average overall mshr miss latency
system.cpu.icache.demand_avg_mshr_miss_latency::total 48841.904762                       # average overall mshr miss latency
system.cpu.icache.overall_avg_mshr_miss_latency::.cpu.inst 48841.904762                       # average overall mshr miss latency
system.cpu.icache.overall_avg_mshr_miss_latency::total 48841.904762                       # average overall mshr miss latency
system.cpu.icache.replacements                   2789                       # number of replacements
system.cpu.icache.ReadReq_hits::.cpu.inst       240049                       # number of ReadReq hits
system.cpu.icache.ReadReq_hits::total          240049                       # number of ReadReq hits
system.cpu.icache.ReadReq_misses::.cpu.inst         3788                       # number of ReadReq misses
system.cpu.icache.ReadReq_misses::total          3788                       # number of ReadReq misses
system.cpu.icache.ReadReq_miss_latency::.cpu.inst    184570800                       # number of ReadReq miss cycles
system.cpu.icache.ReadReq_miss_latency::total    184570800                       # number of ReadReq miss cycles
system.cpu.icache.ReadReq_accesses::.cpu.inst       243837                       # number of ReadReq accesses(hits+misses)
system.cpu.icache.ReadReq_accesses::total       243837                       # number of ReadReq accesses(hits+misses)
system.cpu.icache.ReadReq_miss_rate::.cpu.inst     0.015535                       # miss rate for ReadReq accesses
system.cpu.icache.ReadReq_miss_rate::total     0.015535                       # miss rate for ReadReq accesses
system.cpu.icache.ReadReq_avg_miss_latency::.cpu.inst 48725.131996                       # average ReadReq miss latency
system.cpu.icache.ReadReq_avg_miss_latency::total 48725.131996                       # average ReadReq miss latency
system.cpu.icache.ReadReq_mshr_hits::.cpu.inst          743                       # number of ReadReq MSHR hits
system.cpu.icache.ReadReq_mshr_hits::total          743                       # number of ReadReq MSHR hits
system.cpu.icache.ReadReq_mshr_misses::.cpu.inst         3045                       # number of ReadReq MSHR misses
system.cpu.icache.ReadReq_mshr_misses::total         3045                       # number of ReadReq MSHR misses
system.cpu.icache.ReadReq_mshr_miss_latency::.cpu.inst    148723600                       # number of ReadReq MSHR miss cycles
system.cpu.icache.ReadReq_mshr_miss_latency::total    148723600                       # number of ReadReq MSHR miss cycles
system.cpu.icache.ReadReq_mshr_miss_rate::.cpu.inst     0.012488                       # mshr miss rate for ReadReq accesses
system.cpu.icache.ReadReq_mshr_miss_rate::total     0.012488                       # mshr miss rate for ReadReq accesses
system.cpu.icache.ReadReq_avg_mshr_miss_latency::.cpu.inst 48841.904762                       # average ReadReq mshr miss latency
system.cpu.icache.ReadReq_avg_mshr_miss_latency::total 48841.904762                       # average ReadReq mshr miss latency
system.cpu.icache.prefetcher.pwrStateResidencyTicks::UNDEFINED   1103196800                       # Cumulative time (in ticks) in various power states
system.cpu.icache.tags.pwrStateResidencyTicks::UNDEFINED   1103196800                       # Cumulative time (in ticks) in various power states
system.cpu.icache.tags.tagsinuse           253.512121                       # Cycle average of tags in use
system.cpu.icache.tags.total_refs              227532                       # Total number of references to valid blocks.
system.cpu.icache.tags.sampled_refs              2789                       # Sample count of references to valid blocks.
system.cpu.icache.tags.avg_refs             81.581929                       # Average number of references to valid blocks.
system.cpu.icache.tags.warmup_cycle             66400                       # Cycle when the warmup percentage was hit.
system.cpu.icache.tags.occ_blocks::.cpu.inst   253.512121                       # Average occupied blocks per requestor
system.cpu.icache.tags.occ_percent::.cpu.inst     0.990282                       # Average percentage of cache occupancy
system.cpu.icache.tags.occ_percent::total     0.990282                       # Average percentage of cache occupancy
system.cpu.icache.tags.occ_task_id_blocks::1024          256                       # Occupied blocks per task id
system.cpu.icache.tags.age_task_id_blocks_1024::0           72                       # Occupied blocks per task id
system.cpu.icache.tags.age_task_id_blocks_1024::1          162                       # Occupied blocks per task id
system.cpu.icache.tags.age_task_id_blocks_1024::2           19                       # Occupied blocks per task id
system.cpu.icache.tags.age_task_id_blocks_1024::3            3                       # Occupied blocks per task id
system.cpu.icache.tags.occ_task_id_percent::1024            1                       # Percentage of cache occupancy per task id
system.cpu.icache.tags.tag_accesses            490719                       # Number of tag accesses
system.cpu.icache.tags.data_accesses           490719                       # Number of data accesses
system.cpu.dtb.walker.pwrStateResidencyTicks::UNDEFINED   1103196800                       # Cumulative time (in ticks) in various power states
system.cpu.interrupts.clk_domain.clock           6400                       # Clock period in ticks
system.cpu.itb.walker.pwrStateResidencyTicks::UNDEFINED   1103196800                       # Cumulative time (in ticks) in various power states
system.cpu.dcache.pwrStateResidencyTicks::UNDEFINED   1103196800                       # Cumulative time (in ticks) in various power states
system.cpu.dcache.demand_hits::.cpu.data       682814                       # number of demand (read+write) hits
system.cpu.dcache.demand_hits::total           682814                       # number of demand (read+write) hits
system.cpu.dcache.overall_hits::.cpu.data       682814                       # number of overall hits
system.cpu.dcache.overall_hits::total          682814                       # number of overall hits
system.cpu.dcache.demand_misses::.cpu.data        35605                       # number of demand (read+write) misses
system.cpu.dcache.demand_misses::total          35605                       # number of demand (read+write) misses
system.cpu.dcache.overall_misses::.cpu.data        35605                       # number of overall misses
system.cpu.dcache.overall_misses::total         35605                       # number of overall misses
system.cpu.dcache.demand_miss_latency::.cpu.data   1730565200                       # number of demand (read+write) miss cycles
system.cpu.dcache.demand_miss_latency::total   1730565200                       # number of demand (read+write) miss cycles
system.cpu.dcache.overall_miss_latency::.cpu.data   1730565200                       # number of overall miss cycles
system.cpu.dcache.overall_miss_latency::total   1730565200                       # number of overall miss cycles
system.cpu.dcache.demand_accesses::.cpu.data       718419                       # number of demand (read+write) accesses
system.cpu.dcache.demand_accesses::total       718419                       # number of demand (read+write) accesses
system.cpu.dcache.overall_accesses::.cpu.data       718419                       # number of overall (read+write) accesses
system.cpu.dcache.overall_accesses::total       718419                       # number of overall (read+write) accesses
system.cpu.dcache.demand_miss_rate::.cpu.data     0.049560                       # miss rate for demand accesses
system.cpu.dcache.demand_miss_rate::total     0.049560                       # miss rate for demand accesses
system.cpu.dcache.overall_miss_rate::.cpu.data     0.049560                       # miss rate for overall accesses
system.cpu.dcache.overall_miss_rate::total     0.049560                       # miss rate for overall accesses
system.cpu.dcache.demand_avg_miss_latency::.cpu.data 48604.555540                       # average overall miss latency
system.cpu.dcache.demand_avg_miss_latency::total 48604.555540                       # average overall miss latency
system.cpu.dcache.overall_avg_miss_latency::.cpu.data 48604.555540                       # average overall miss latency
system.cpu.dcache.overall_avg_miss_latency::total 48604.555540                       # average overall miss latency
system.cpu.dcache.blocked_cycles::no_mshrs        28478                       # number of cycles access was blocked
system.cpu.dcache.blocked_cycles::no_targets           98                       # number of cycles access was blocked
system.cpu.dcache.blocked::no_mshrs               738                       # number of cycles access was blocked
system.cpu.dcache.blocked::no_targets               1                       # number of cycles access was blocked
system.cpu.dcache.avg_blocked_cycles::no_mshrs    38.588076                       # average number of cycles each access was blocked
system.cpu.dcache.avg_blocked_cycles::no_targets           98                       # average number of cycles each access was blocked
system.cpu.dcache.unused_prefetches              1941                       # number of HardPF blocks evicted w/o reference
system.cpu.dcache.writebacks::.writebacks         2796                       # number of writebacks
system.cpu.dcache.writebacks::total              2796                       # number of writebacks
system.cpu.dcache.demand_mshr_hits::.cpu.data        22918                       # number of demand (read+write) MSHR hits
system.cpu.dcache.demand_mshr_hits::total        22918                       # number of demand (read+write) MSHR hits
system.cpu.dcache.overall_mshr_hits::.cpu.data        22918                       # number of overall MSHR hits
system.cpu.dcache.overall_mshr_hits::total        22918                       # number of overall MSHR hits
system.cpu.dcache.demand_mshr_misses::.cpu.data        12687                       # number of demand (read+write) MSHR misses
system.cpu.dcache.demand_mshr_misses::total        12687                       # number of demand (read+write) MSHR misses
system.cpu.dcache.overall_mshr_misses::.cpu.data        12687                       # number of overall MSHR misses
system.cpu.dcache.overall_mshr_misses::.cpu.dcache.prefetcher         4462                       # number of overall MSHR misses
system.cpu.dcache.overall_mshr_misses::total        17149                       # number of overall MSHR misses
system.cpu.dcache.demand_mshr_miss_latency::.cpu.data    583443600                       # number of demand (read+write) MSHR miss cycles
system.cpu.dcache.demand_mshr_miss_latency::total    583443600                       # number of demand (read+write) MSHR miss cycles
system.cpu.dcache.overall_mshr_miss_latency::.cpu.data    583443600                       # number of overall MSHR miss cycles
system.cpu.dcache.overall_mshr_miss_latency::.cpu.dcache.prefetcher    250939613                       # number of overall MSHR miss cycles
system.cpu.dcache.overall_mshr_miss_latency::total    834383213                       # number of overall MSHR miss cycles
system.cpu.dcache.demand_mshr_miss_rate::.cpu.data     0.017660                       # mshr miss rate for demand accesses
system.cpu.dcache.demand_mshr_miss_rate::total     0.017660                       # mshr miss rate for demand accesses
system.cpu.dcache.overall_mshr_miss_rate::.cpu.data     0.017660                       # mshr miss rate for overall accesses
system.cpu.dcache.overall_mshr_miss_rate::.cpu.dcache.prefetcher          inf                       # mshr miss rate for overall accesses
system.cpu.dcache.overall_mshr_miss_rate::total     0.023870                       # mshr miss rate for overall accesses
system.cpu.dcache.demand_avg_mshr_miss_latency::.cpu.data 45987.514779                       # average overall mshr miss latency
system.cpu.dcache.demand_avg_mshr_miss_latency::total 45987.514779                       # average overall mshr miss latency
system.cpu.dcache.overall_avg_mshr_miss_latency::.cpu.data 45987.514779                       # average overall mshr miss latency
system.cpu.dcache.overall_avg_mshr_miss_latency::.cpu.dcache.prefetcher 56239.267817                       # average overall mshr miss latency
system.cpu.dcache.overall_avg_mshr_miss_latency::total 48654.919412                       # average overall mshr miss latency
system.cpu.dcache.replacements                  16125                       # number of replacements
system.cpu.dcache.ReadReq_hits::.cpu.data       509722                       # number of ReadReq hits
system.cpu.dcache.ReadReq_hits::total          509722                       # number of ReadReq hits
system.cpu.dcache.ReadReq_misses::.cpu.data        33519                       # number of ReadReq misses
system.cpu.dcache.ReadReq_misses::total         33519                       # number of ReadReq misses
system.cpu.dcache.ReadReq_miss_latency::.cpu.data   1627719600                       # number of ReadReq miss cycles
system.cpu.dcache.ReadReq_miss_latency::total   1627719600                       # number of ReadReq miss cycles
system.cpu.dcache.ReadReq_accesses::.cpu.data       543241                       # number of ReadReq accesses(hits+misses)
system.cpu.dcache.ReadReq_accesses::total       543241                       # number of ReadReq accesses(hits+misses)
system.cpu.dcache.ReadReq_miss_rate::.cpu.data     0.061702                       # miss rate for ReadReq accesses
system.cpu.dcache.ReadReq_miss_rate::total     0.061702                       # miss rate for ReadReq accesses
system.cpu.dcache.ReadReq_avg_miss_latency::.cpu.data 48561.102658                       # average ReadReq miss latency
system.cpu.dcache.ReadReq_avg_miss_latency::total 48561.102658                       # average ReadReq miss latency
system.cpu.dcache.ReadReq_mshr_hits::.cpu.data        22883                       # number of ReadReq MSHR hits
system.cpu.dcache.ReadReq_mshr_hits::total        22883                       # number of ReadReq MSHR hits
system.cpu.dcache.ReadReq_mshr_misses::.cpu.data        10636                       # number of ReadReq MSHR misses
system.cpu.dcache.ReadReq_mshr_misses::total        10636                       # number of ReadReq MSHR misses
system.cpu.dcache.ReadReq_mshr_miss_latency::.cpu.data    483305200                       # number of ReadReq MSHR miss cycles
system.cpu.dcache.ReadReq_mshr_miss_latency::total    483305200                       # number of ReadReq MSHR miss cycles
system.cpu.dcache.ReadReq_mshr_miss_rate::.cpu.data     0.019579                       # mshr miss rate for ReadReq accesses
system.cpu.dcache.ReadReq_mshr_miss_rate::total     0.019579                       # mshr miss rate for ReadReq accesses
system.cpu.dcache.ReadReq_avg_mshr_miss_latency::.cpu.data 45440.503949                       # average ReadReq mshr miss latency
system.cpu.dcache.ReadReq_avg_mshr_miss_latency::total 45440.503949                       # average ReadReq mshr miss latency
system.cpu.dcache.WriteReq_hits::.cpu.data       173092                       # number of WriteReq hits
system.cpu.dcache.WriteReq_hits::total         173092                       # number of WriteReq hits
system.cpu.dcache.WriteReq_misses::.cpu.data         2086                       # number of WriteReq misses
system.cpu.dcache.WriteReq_misses::total         2086                       # number of WriteReq misses
system.cpu.dcache.WriteReq_miss_latency::.cpu.data    102845600                       # number of WriteReq miss cycles
system.cpu.dcache.WriteReq_miss_latency::total    102845600                       # number of WriteReq miss cycles
system.cpu.dcache.WriteReq_accesses::.cpu.data       175178                       # number of WriteReq accesses(hits+misses)
system.cpu.dcache.WriteReq_accesses::total       175178                       # number of WriteReq accesses(hits+misses)
system.cpu.dcache.WriteReq_miss_rate::.cpu.data     0.011908                       # miss rate for WriteReq accesses
system.cpu.dcache.WriteReq_miss_rate::total     0.011908                       # miss rate for WriteReq accesses
system.cpu.dcache.WriteReq_avg_miss_latency::.cpu.data 49302.780441                       # average WriteReq miss latency
system.cpu.dcache.WriteReq_avg_miss_latency::total 49302.780441                       # average WriteReq miss latency
system.cpu.dcache.WriteReq_mshr_hits::.cpu.data           35                       # number of WriteReq MSHR hits
system.cpu.dcache.WriteReq_mshr_hits::total           35                       # number of WriteReq MSHR hits
system.cpu.dcache.WriteReq_mshr_misses::.cpu.data         2051                       # number of WriteReq MSHR misses
system.cpu.dcache.WriteReq_mshr_misses::total         2051                       # number of WriteReq MSHR misses
[...]
system.l2cache.overall_mshr_miss_latency::total     15310381                       # number of overall MSHR miss cycles
system.l2cache.demand_mshr_miss_rate::.cpu.inst     0.390547                       # mshr miss rate for demand accesses
system.l2cache.demand_mshr_miss_rate::.cpu.data     0.534247                       # mshr miss rate for demand accesses
system.l2cache.demand_mshr_miss_rate::.cpu.dcache.prefetcher     0.777778                       # mshr miss rate for demand accesses
system.l2cache.demand_mshr_miss_rate::total     0.439929                       # mshr miss rate for demand accesses
system.l2cache.overall_mshr_miss_rate::.cpu.inst     0.390547                       # mshr miss rate for overall accesses
system.l2cache.overall_mshr_miss_rate::.cpu.data     0.534247                       # mshr miss rate for overall accesses
system.l2cache.overall_mshr_miss_rate::.cpu.dcache.prefetcher     0.777778                       # mshr miss rate for overall accesses
system.l2cache.overall_mshr_miss_rate::.l2cache.prefetcher          inf                       # mshr miss rate for overall accesses
system.l2cache.overall_mshr_miss_rate::total     0.445230                       # mshr miss rate for overall accesses
system.l2cache.demand_avg_mshr_miss_latency::.cpu.inst 60338.853503                       # average overall mshr miss latency
system.l2cache.demand_avg_mshr_miss_latency::.cpu.data 60323.076923                       # average overall mshr miss latency
system.l2cache.demand_avg_mshr_miss_latency::.cpu.dcache.prefetcher 59570.214286                       # average overall mshr miss latency
system.l2cache.demand_avg_mshr_miss_latency::total 60290.694779                       # average overall mshr miss latency
system.l2cache.overall_avg_mshr_miss_latency::.cpu.inst 60338.853503                       # average overall mshr miss latency
system.l2cache.overall_avg_mshr_miss_latency::.cpu.data 60323.076923                       # average overall mshr miss latency
system.l2cache.overall_avg_mshr_miss_latency::.cpu.dcache.prefetcher 59570.214286                       # average overall mshr miss latency
system.l2cache.overall_avg_mshr_miss_latency::.l2cache.prefetcher 99332.666667                       # average overall mshr miss latency
system.l2cache.overall_avg_mshr_miss_latency::total 60755.480159                       # average overall mshr miss latency
system.l2cache.replacements                       255                       # number of replacements
system.l2cache.WritebackDirty_hits::.writebacks           36                       # number of WritebackDirty hits
system.l2cache.WritebackDirty_hits::total           36                       # number of WritebackDirty hits
system.l2cache.WritebackDirty_accesses::.writebacks           36                       # number of WritebackDirty accesses(hits+misses)
system.l2cache.WritebackDirty_accesses::total           36                       # number of WritebackDirty accesses(hits+misses)
system.l2cache.CleanEvict_mshr_misses::.writebacks            5                       # number of CleanEvict MSHR misses
system.l2cache.CleanEvict_mshr_misses::total            5                       # number of CleanEvict MSHR misses
system.l2cache.CleanEvict_mshr_miss_rate::.writebacks          inf                       # mshr miss rate for CleanEvict accesses
system.l2cache.CleanEvict_mshr_miss_rate::total          inf                       # mshr miss rate for CleanEvict accesses
system.l2cache.HardPFReq_mshr_misses::.l2cache.prefetcher            3                       # number of HardPFReq MSHR misses
system.l2cache.HardPFReq_mshr_misses::total            3                       # number of HardPFReq MSHR misses
system.l2cache.HardPFReq_mshr_miss_latency::.l2cache.prefetcher       297998                       # number of HardPFReq MSHR miss cycles
system.l2cache.HardPFReq_mshr_miss_latency::total       297998                       # number of HardPFReq MSHR miss cycles
system.l2cache.HardPFReq_mshr_miss_rate::.l2cache.prefetcher          inf                       # mshr miss rate for HardPFReq accesses
system.l2cache.HardPFReq_mshr_miss_rate::total          inf                       # mshr miss rate for HardPFReq accesses
system.l2cache.HardPFReq_avg_mshr_miss_latency::.l2cache.prefetcher 99332.666667                       # average HardPFReq mshr miss latency
system.l2cache.HardPFReq_avg_mshr_miss_latency::total 99332.666667                       # average HardPFReq mshr miss latency
system.l2cache.ReadExReq_hits::.cpu.data            4                       # number of ReadExReq hits
system.l2cache.ReadExReq_hits::total                4                       # number of ReadExReq hits
system.l2cache.ReadExReq_misses::.cpu.data            4                       # number of ReadExReq misses
system.l2cache.ReadExReq_misses::total              4                       # number of ReadExReq misses
system.l2cache.ReadExReq_miss_latency::.cpu.data       324800                       # number of ReadExReq miss cycles
system.l2cache.ReadExReq_miss_latency::total       324800                       # number of ReadExReq miss cycles
system.l2cache.ReadExReq_accesses::.cpu.data            8                       # number of ReadExReq accesses(hits+misses)
system.l2cache.ReadExReq_accesses::total            8                       # number of ReadExReq accesses(hits+misses)
system.l2cache.ReadExReq_miss_rate::.cpu.data     0.500000                       # miss rate for ReadExReq accesses
system.l2cache.ReadExReq_miss_rate::total     0.500000                       # miss rate for ReadExReq accesses
system.l2cache.ReadExReq_avg_miss_latency::.cpu.data        81200                       # average ReadExReq miss latency
system.l2cache.ReadExReq_avg_miss_latency::total        81200                       # average ReadExReq miss latency
system.l2cache.ReadExReq_mshr_misses::.cpu.data            4                       # number of ReadExReq MSHR misses
system.l2cache.ReadExReq_mshr_misses::total            4                       # number of ReadExReq MSHR misses
system.l2cache.ReadExReq_mshr_miss_latency::.cpu.data       292800                       # number of ReadExReq MSHR miss cycles
system.l2cache.ReadExReq_mshr_miss_latency::total       292800                       # number of ReadExReq MSHR miss cycles
system.l2cache.ReadExReq_mshr_miss_rate::.cpu.data     0.500000                       # mshr miss rate for ReadExReq accesses
system.l2cache.ReadExReq_mshr_miss_rate::total     0.500000                       # mshr miss rate for ReadExReq accesses
system.l2cache.ReadExReq_avg_mshr_miss_latency::.cpu.data        73200                       # average ReadExReq mshr miss latency
system.l2cache.ReadExReq_avg_mshr_miss_latency::total        73200                       # average ReadExReq mshr miss latency
system.l2cache.ReadSharedReq_hits::.cpu.inst          245                       # number of ReadSharedReq hits
system.l2cache.ReadSharedReq_hits::.cpu.data           64                       # number of ReadSharedReq hits
system.l2cache.ReadSharedReq_hits::.cpu.dcache.prefetcher            4                       # number of ReadSharedReq hits
system.l2cache.ReadSharedReq_hits::total          313                       # number of ReadSharedReq hits
system.l2cache.ReadSharedReq_misses::.cpu.inst          157                       # number of ReadSharedReq misses
system.l2cache.ReadSharedReq_misses::.cpu.data           74                       # number of ReadSharedReq misses
system.l2cache.ReadSharedReq_misses::.cpu.dcache.prefetcher           14                       # number of ReadSharedReq misses
system.l2cache.ReadSharedReq_misses::total          245                       # number of ReadSharedReq misses
system.l2cache.ReadSharedReq_miss_latency::.cpu.inst     10721200                       # number of ReadSharedReq miss cycles
system.l2cache.ReadSharedReq_miss_latency::.cpu.data      5004400                       # number of ReadSharedReq miss cycles
system.l2cache.ReadSharedReq_miss_latency::.cpu.dcache.prefetcher       945983                       # number of ReadSharedReq miss cycles
system.l2cache.ReadSharedReq_miss_latency::total     16671583                       # number of ReadSharedReq miss cycles
system.l2cache.ReadSharedReq_accesses::.cpu.inst          402                       # number of ReadSharedReq accesses(hits+misses)
system.l2cache.ReadSharedReq_accesses::.cpu.data          138                       # number of ReadSharedReq accesses(hits+misses)
system.l2cache.ReadSharedReq_accesses::.cpu.dcache.prefetcher           18                       # number of ReadSharedReq accesses(hits+misses)
system.l2cache.ReadSharedReq_accesses::total          558                       # number of ReadSharedReq accesses(hits+misses)
system.l2cache.ReadSharedReq_miss_rate::.cpu.inst     0.390547                       # miss rate for ReadSharedReq accesses
system.l2cache.ReadSharedReq_miss_rate::.cpu.data     0.536232                       # miss rate for ReadSharedReq accesses
system.l2cache.ReadSharedReq_miss_rate::.cpu.dcache.prefetcher     0.777778                       # miss rate for ReadSharedReq accesses
system.l2cache.ReadSharedReq_miss_rate::total     0.439068                       # miss rate for ReadSharedReq accesses
system.l2cache.ReadSharedReq_avg_miss_latency::.cpu.inst 68287.898089                       # average ReadSharedReq miss latency
system.l2cache.ReadSharedReq_avg_miss_latency::.cpu.data 67627.027027                       # average ReadSharedReq miss latency
system.l2cache.ReadSharedReq_avg_miss_latency::.cpu.dcache.prefetcher 67570.214286                       # average ReadSharedReq miss latency
system.l2cache.ReadSharedReq_avg_miss_latency::total 68047.277551                       # average ReadSharedReq miss latency
system.l2cache.ReadSharedReq_mshr_misses::.cpu.inst          157                       # number of ReadSharedReq MSHR misses
system.l2cache.ReadSharedReq_mshr_misses::.cpu.data           74                       # number of ReadSharedReq MSHR misses
system.l2cache.ReadSharedReq_mshr_misses::.cpu.dcache.prefetcher           14                       # number of ReadSharedReq MSHR misses
system.l2cache.ReadSharedReq_mshr_misses::total          245                       # number of ReadSharedReq MSHR misses
system.l2cache.ReadSharedReq_mshr_miss_latency::.cpu.inst      9473200                       # number of ReadSharedReq MSHR miss cycles
system.l2cache.ReadSharedReq_mshr_miss_latency::.cpu.data      4412400                       # number of ReadSharedReq MSHR miss cycles
system.l2cache.ReadSharedReq_mshr_miss_latency::.cpu.dcache.prefetcher       833983                       # number of ReadSharedReq MSHR miss cycles
system.l2cache.ReadSharedReq_mshr_miss_latency::total     14719583                       # number of ReadSharedReq MSHR miss cycles
system.l2cache.ReadSharedReq_mshr_miss_rate::.cpu.inst     0.390547                       # mshr miss rate for ReadSharedReq accesses
system.l2cache.ReadSharedReq_mshr_miss_rate::.cpu.data     0.536232                       # mshr miss rate for ReadSharedReq accesses
system.l2cache.ReadSharedReq_mshr_miss_rate::.cpu.dcache.prefetcher     0.777778                       # mshr miss rate for ReadSharedReq accesses
system.l2cache.ReadSharedReq_mshr_miss_rate::total     0.439068                       # mshr miss rate for ReadSharedReq accesses
system.l2cache.ReadSharedReq_avg_mshr_miss_latency::.cpu.inst 60338.853503                       # average ReadSharedReq mshr miss latency
system.l2cache.ReadSharedReq_avg_mshr_miss_latency::.cpu.data 59627.027027                       # average ReadSharedReq mshr miss latency
system.l2cache.ReadSharedReq_avg_mshr_miss_latency::.cpu.dcache.prefetcher 59570.214286                       # average ReadSharedReq mshr miss latency
system.l2cache.ReadSharedReq_avg_mshr_miss_latency::total 60079.930612                       # average ReadSharedReq mshr miss latency
system.l2cache.prefetcher.pwrStateResidencyTicks::UNDEFINED     29506400                       # Cumulative time (in ticks) in various power states
system.l2cache.tags.pwrStateResidencyTicks::UNDEFINED     29506400                       # Cumulative time (in ticks) in various power states
system.l2cache.tags.tagsinuse                    4096                       # Cycle average of tags in use
system.l2cache.tags.total_refs                  13883                       # Total number of references to valid blocks.
system.l2cache.tags.sampled_refs                 4351                       # Sample count of references to valid blocks.
system.l2cache.tags.avg_refs                 3.190761                       # Average number of references to valid blocks.
system.l2cache.tags.warmup_cycle                    0                       # Cycle when the warmup percentage was hit.
system.l2cache.tags.occ_blocks::.writebacks    38.700933                       # Average occupied blocks per requestor
system.l2cache.tags.occ_blocks::.cpu.inst  1159.278004                       # Average occupied blocks per requestor
system.l2cache.tags.occ_blocks::.cpu.data  1864.576321                       # Average occupied blocks per requestor
system.l2cache.tags.occ_blocks::.cpu.dcache.prefetcher   907.424042                       # Average occupied blocks per requestor
system.l2cache.tags.occ_blocks::.l2cache.prefetcher   126.020701                       # Average occupied blocks per requestor
system.l2cache.tags.occ_percent::.writebacks     0.009448                       # Average percentage of cache occupancy
system.l2cache.tags.occ_percent::.cpu.inst     0.283027                       # Average percentage of cache occupancy
system.l2cache.tags.occ_percent::.cpu.data     0.455219                       # Average percentage of cache occupancy
system.l2cache.tags.occ_percent::.cpu.dcache.prefetcher     0.221539                       # Average percentage of cache occupancy
system.l2cache.tags.occ_percent::.l2cache.prefetcher     0.030767                       # Average percentage of cache occupancy
system.l2cache.tags.occ_percent::total              1                       # Average percentage of cache occupancy
system.l2cache.tags.occ_task_id_blocks::1022          995                       # Occupied blocks per task id
system.l2cache.tags.occ_task_id_blocks::1024         3101                       # Occupied blocks per task id
system.l2cache.tags.age_task_id_blocks_1022::0           10                       # Occupied blocks per task id
system.l2cache.tags.age_task_id_blocks_1022::1           98                       # Occupied blocks per task id
system.l2cache.tags.age_task_id_blocks_1022::2          883                       # Occupied blocks per task id
system.l2cache.tags.age_task_id_blocks_1022::3            4                       # Occupied blocks per task id
system.l2cache.tags.age_task_id_blocks_1024::0          164                       # Occupied blocks per task id
system.l2cache.tags.age_task_id_blocks_1024::1          778                       # Occupied blocks per task id
system.l2cache.tags.age_task_id_blocks_1024::2         2111                       # Occupied blocks per task id
system.l2cache.tags.age_task_id_blocks_1024::3           48                       # Occupied blocks per task id
system.l2cache.tags.occ_task_id_percent::1022     0.242920                       # Percentage of cache occupancy per task id
system.l2cache.tags.occ_task_id_percent::1024     0.757080                       # Percentage of cache occupancy per task id
system.l2cache.tags.tag_accesses                 9303                       # Number of tag accesses
system.l2cache.tags.data_accesses                9303                       # Number of data accesses
system.mem_ctrl.pwrStateResidencyTicks::UNDEFINED     29506400                       # Cumulative time (in ticks) in various power states
system.mem_ctrl.bytes_read::.cpu.inst            9984                       # Number of bytes read from this memory
system.mem_ctrl.bytes_read::.cpu.data            4992                       # Number of bytes read from this memory
system.mem_ctrl.bytes_read::.cpu.dcache.prefetcher          896                       # Number of bytes read from this memory
system.mem_ctrl.bytes_read::.l2cache.prefetcher          192                       # Number of bytes read from this memory
system.mem_ctrl.bytes_read::total               16064                       # Number of bytes read from this memory
system.mem_ctrl.bytes_inst_read::.cpu.inst         9984                       # Number of instructions bytes read from this memory
system.mem_ctrl.bytes_inst_read::total           9984                       # Number of instructions bytes read from this memory
system.mem_ctrl.bytes_written::.writebacks          960                       # Number of bytes written to this memory
system.mem_ctrl.bytes_written::total              960                       # Number of bytes written to this memory
system.mem_ctrl.num_reads::.cpu.inst              156                       # Number of read requests responded to by this memory
system.mem_ctrl.num_reads::.cpu.data               78                       # Number of read requests responded to by this memory
system.mem_ctrl.num_reads::.cpu.dcache.prefetcher           14                       # Number of read requests responded to by this memory
system.mem_ctrl.num_reads::.l2cache.prefetcher            3                       # Number of read requests responded to by this memory
system.mem_ctrl.num_reads::total                  251                       # Number of read requests responded to by this memory
system.mem_ctrl.num_writes::.writebacks            15                       # Number of write requests responded to by this memory
system.mem_ctrl.num_writes::total                  15                       # Number of write requests responded to by this memory
system.mem_ctrl.bw_read::.cpu.inst          338367269                       # Total read bandwidth from this memory (bytes/s)
system.mem_ctrl.bw_read::.cpu.data          169183635                       # Total read bandwidth from this memory (bytes/s)
system.mem_ctrl.bw_read::.cpu.dcache.prefetcher     30366293                       # Total read bandwidth from this memory (bytes/s)
system.mem_ctrl.bw_read::.l2cache.prefetcher      6507063                       # Total read bandwidth from this memory (bytes/s)
system.mem_ctrl.bw_read::total              544424260                       # Total read bandwidth from this memory (bytes/s)
system.mem_ctrl.bw_inst_read::.cpu.inst     338367269                       # Instruction read bandwidth from this memory (bytes/s)
system.mem_ctrl.bw_inst_read::total         338367269                       # Instruction read bandwidth from this memory (bytes/s)
system.mem_ctrl.bw_write::.writebacks        32535314                       # Write bandwidth from this memory (bytes/s)
system.mem_ctrl.bw_write::total              32535314                       # Write bandwidth from this memory (bytes/s)
system.mem_ctrl.bw_total::.writebacks        32535314                       # Total bandwidth to/from this memory (bytes/s)
system.mem_ctrl.bw_total::.cpu.inst         338367269                       # Total bandwidth to/from this memory (bytes/s)
system.mem_ctrl.bw_total::.cpu.data         169183635                       # Total bandwidth to/from this memory (bytes/s)
system.mem_ctrl.bw_total::.cpu.dcache.prefetcher     30366293                       # Total bandwidth to/from this memory (bytes/s)
system.mem_ctrl.bw_total::.l2cache.prefetcher      6507063                       # Total bandwidth to/from this memory (bytes/s)
system.mem_ctrl.bw_total::total             576959575                       # Total bandwidth to/from this memory (bytes/s)

---------- End Simulation Statistics   ----------
