
---------- Begin Simulation Statistics ----------
final_tick                                 1090712400                       # Number of ticks from beginning of simulation (restored from checkpoints and never reset)
host_inst_rate                                 177248                       # Simulator instruction rate (inst/s)
host_mem_usage                                4402740                       # Number of bytes of host memory used
host_op_rate                                   307806                       # Simulator op (including micro ops) rate (op/s)
host_seconds                                    11.72                       # Real time elapsed on the host
host_tick_rate                               93060908                       # Simulator tick rate (ticks/s)
sim_freq                                 1000000000000                       # Frequency of simulated ticks
sim_insts                                     2077400                       # Number of instructions simulated
sim_ops                                       3607604                       # Number of ops (including micro ops) simulated
sim_seconds                                  0.001091                       # Number of seconds simulated
sim_ticks                                  1090712400                       # Number of ticks simulated
system.cpu.branchPred.BTBCorrect                    0                       # Number of correct BTB predictions (this stat may not work properly.
system.cpu.branchPred.BTBHitPct              0.000000                       # BTB Hit Percentage
system.cpu.branchPred.BTBHits                       0                       # Number of BTB hits
system.cpu.branchPred.BTBLookups               437613                       # Number of BTB lookups
system.cpu.branchPred.RASInCorrect                  5                       # Number of incorrect RAS predictions.
system.cpu.branchPred.condIncorrect             24150                       # Number of conditional branches incorrect
system.cpu.branchPred.condPredicted            463270                       # Number of conditional branches predicted
system.cpu.branchPred.indirectHits             239571                       # Number of indirect target hits.
system.cpu.branchPred.indirectLookups          437613                       # Number of indirect predictor lookups.
system.cpu.branchPred.indirectMisses           198042                       # Number of indirect misses.
system.cpu.branchPred.lookups                  490160                       # Number of BP lookups
system.cpu.branchPred.usedRAS                   11655                       # Number of times the RAS was used to get a target.
system.cpu.branchPredindirectMispredicted        12117                       # Number of mispredicted indirect branches.
system.cpu.cc_regfile_reads                   2370986                       # number of cc regfile reads
system.cpu.cc_regfile_writes                  1955508                       # number of cc regfile writes
system.cpu.commit.amos                              0                       # Number of atomic instructions committed
system.cpu.commit.branchMispredicts             24232                       # The number of times a branch was mispredicted
system.cpu.commit.branches                     345393                       # Number of branches committed
system.cpu.commit.bw_lim_events                598301                       # number cycles where commit BW limit reached
system.cpu.commit.commitNonSpecStalls             732                       # The number of times commit has been forced to stall to communicate backwards
system.cpu.commit.commitSquashedInsts          887601                       # The number of squashed insts skipped by commit
system.cpu.commit.committedInsts              2077400                       # Number of instructions committed
system.cpu.commit.committedOps                3607604                       # Number of ops (including micro ops) committed
system.cpu.commit.committed_per_cycle::samples      2334969                       # Number of insts commited each cycle
system.cpu.commit.committed_per_cycle::mean     1.545033                       # Number of insts commited each cycle
system.cpu.commit.committed_per_cycle::stdev     1.722684                       # Number of insts commited each cycle
system.cpu.commit.committed_per_cycle::underflows            0      0.00%      0.00% # Number of insts commited each cycle
system.cpu.commit.committed_per_cycle::0      1151731     49.33%     49.33% # Number of insts commited each cycle
system.cpu.commit.committed_per_cycle::1       184010      7.88%     57.21% # Number of insts commited each cycle
system.cpu.commit.committed_per_cycle::2       172391      7.38%     64.59% # Number of insts commited each cycle
system.cpu.commit.committed_per_cycle::3       228536      9.79%     74.38% # Number of insts commited each cycle
system.cpu.commit.committed_per_cycle::4       598301     25.62%    100.00% # Number of insts commited each cycle
system.cpu.commit.committed_per_cycle::overflows            0      0.00%    100.00% # Number of insts commited each cycle
system.cpu.commit.committed_per_cycle::min_value            0                       # Number of insts commited each cycle
system.cpu.commit.committed_per_cycle::max_value            4                       # Number of insts commited each cycle
system.cpu.commit.committed_per_cycle::total      2334969                       # Number of insts commited each cycle
system.cpu.commit.fp_insts                      72844                       # Number of committed floating point instructions.
system.cpu.commit.function_calls                 9844                       # Number of function calls committed.
system.cpu.commit.int_insts                   3553437                       # Number of committed integer instructions.
system.cpu.commit.loads                        491604                       # Number of loads committed
system.cpu.commit.membars                           1                       # Number of memory barriers committed
system.cpu.commit.op_class_0::No_OpClass        20166      0.56%      0.56% # Class of committed instruction
system.cpu.commit.op_class_0::IntAlu          2843055     78.81%     79.37% # Class of committed instruction
system.cpu.commit.op_class_0::IntMult            2299      0.06%     79.43% # Class of committed instruction
system.cpu.commit.op_class_0::IntDiv            37816      1.05%     80.48% # Class of committed instruction
system.cpu.commit.op_class_0::FloatAdd           2834      0.08%     80.56% # Class of committed instruction
system.cpu.commit.op_class_0::FloatCmp              0      0.00%     80.56% # Class of committed instruction
system.cpu.commit.op_class_0::FloatCvt           1200      0.03%     80.59% # Class of committed instruction
system.cpu.commit.op_class_0::FloatMult             0      0.00%     80.59% # Class of committed instruction
system.cpu.commit.op_class_0::FloatMultAcc            0      0.00%     80.59% # Class of committed instruction
system.cpu.commit.op_class_0::FloatDiv              0      0.00%     80.59% # Class of committed instruction
system.cpu.commit.op_class_0::FloatMisc             0      0.00%     80.59% # Class of committed instruction
system.cpu.commit.op_class_0::FloatSqrt             0      0.00%     80.59% # Class of committed instruction
system.cpu.commit.op_class_0::SimdAdd            6184      0.17%     80.76% # Class of committed instruction
system.cpu.commit.op_class_0::SimdAddAcc            0      0.00%     80.76% # Class of committed instruction
system.cpu.commit.op_class_0::SimdAlu           11116      0.31%     81.07% # Class of committed instruction
system.cpu.commit.op_class_0::SimdCmp               0      0.00%     81.07% # Class of committed instruction
system.cpu.commit.op_class_0::SimdCvt           12050      0.33%     81.40% # Class of committed instruction
system.cpu.commit.op_class_0::SimdMisc           6479      0.18%     81.58% # Class of committed instruction
system.cpu.commit.op_class_0::SimdMult              0      0.00%     81.58% # Class of committed instruction
system.cpu.commit.op_class_0::SimdMultAcc            0      0.00%     81.58% # Class of committed instruction
system.cpu.commit.op_class_0::SimdShift          1055      0.03%     81.61% # Class of committed instruction
system.cpu.commit.op_class_0::SimdShiftAcc            0      0.00%     81.61% # Class of committed instruction
system.cpu.commit.op_class_0::SimdDiv               0      0.00%     81.61% # Class of committed instruction
system.cpu.commit.op_class_0::SimdSqrt              0      0.00%     81.61% # Class of committed instruction
system.cpu.commit.op_class_0::SimdFloatAdd            0      0.00%     81.61% # Class of committed instruction
system.cpu.commit.op_class_0::SimdFloatAlu            0      0.00%     81.61% # Class of committed instruction
system.cpu.commit.op_class_0::SimdFloatCmp            0      0.00%     81.61% # Class of committed instruction
system.cpu.commit.op_class_0::SimdFloatCvt            0      0.00%     81.61% # Class of committed instruction
system.cpu.commit.op_class_0::SimdFloatDiv            0      0.00%     81.61% # Class of committed instruction
system.cpu.commit.op_class_0::SimdFloatMisc            0      0.00%     81.61% # Class of committed instruction
system.cpu.commit.op_class_0::SimdFloatMult            0      0.00%     81.61% # Class of committed instruction
system.cpu.commit.op_class_0::SimdFloatMultAcc            0      0.00%     81.61% # Class of committed instruction
system.cpu.commit.op_class_0::SimdFloatSqrt            0      0.00%     81.61% # Class of committed instruction
system.cpu.commit.op_class_0::SimdReduceAdd            0      0.00%     81.61% # Class of committed instruction
system.cpu.commit.op_class_0::SimdReduceAlu            0      0.00%     81.61% # Class of committed instruction
system.cpu.commit.op_class_0::SimdReduceCmp            0      0.00%     81.61% # Class of committed instruction
system.cpu.commit.op_class_0::SimdFloatReduceAdd            0      0.00%     81.61% # Class of committed instruction
system.cpu.commit.op_class_0::SimdFloatReduceCmp            0      0.00%     81.61% # Class of committed instruction
system.cpu.commit.op_class_0::SimdAes               0      0.00%     81.61% # Class of committed instruction
system.cpu.commit.op_class_0::SimdAesMix            0      0.00%     81.61% # Class of committed instruction
system.cpu.commit.op_class_0::SimdSha1Hash            0      0.00%     81.61% # Class of committed instruction
system.cpu.commit.op_class_0::SimdSha1Hash2            0      0.00%     81.61% # Class of committed instruction
system.cpu.commit.op_class_0::SimdSha256Hash            0      0.00%     81.61% # Class of committed instruction
system.cpu.commit.op_class_0::SimdSha256Hash2            0      0.00%     81.61% # Class of committed instruction
system.cpu.commit.op_class_0::SimdShaSigma2            0      0.00%     81.61% # Class of committed instruction
system.cpu.commit.op_class_0::SimdShaSigma3            0      0.00%     81.61% # Class of committed instruction
system.cpu.commit.op_class_0::SimdPredAlu            0      0.00%     81.61% # Class of committed instruction
system.cpu.commit.op_class_0::MemRead          472566     13.10%     94.71% # Class of committed instruction
system.cpu.commit.op_class_0::MemWrite         159677      4.43%     99.14% # Class of committed instruction
system.cpu.commit.op_class_0::FloatMemRead        19038      0.53%     99.67% # Class of committed instruction
system.cpu.commit.op_class_0::FloatMemWrite        12069      0.33%    100.00% # Class of committed instruction
system.cpu.commit.op_class_0::IprAccess             0      0.00%    100.00% # Class of committed instruction
system.cpu.commit.op_class_0::InstPrefetch            0      0.00%    100.00% # Class of committed instruction
system.cpu.commit.op_class_0::total           3607604                       # Class of committed instruction
system.cpu.commit.refs                         663350                       # Number of memory references committed
system.cpu.commit.swp_count                         0                       # Number of s/w prefetches committed
system.cpu.commit.vec_insts                         0                       # Number of committed Vector instructions.
system.cpu.committedInsts                     2077400                       # Number of Instructions Simulated
system.cpu.committedOps                       3607604                       # Number of Ops (including micro ops) Simulated
system.cpu.cpi                               1.312594                       # CPI: Cycles Per Instruction
system.cpu.cpi_total                         1.312594                       # CPI: Total CPI of All Threads
system.cpu.dcache.prefetcher.num_hwpf_issued         7755                       # number of hwpf issued
system.cpu.dcache.prefetcher.pfBufferHit        33369                       # number of redundant prefetches already in prefetch queue
system.cpu.dcache.prefetcher.pfIdentified        48313                       # number of prefetch candidates identified
system.cpu.dcache.prefetcher.pfInCache              0                       # number of redundant prefetches already in cache/mshr dropped
system.cpu.dcache.prefetcher.pfRemovedFull            0                       # number of prefetches dropped due to prefetch queue size
system.cpu.dcache.prefetcher.pfSpanPage          4343                       # number of prefetches that crossed the page
system.cpu.decode.BlockedCycles               1026114                       # Number of cycles decode is blocked
system.cpu.decode.DecodedInsts                4711610                       # Number of instructions handled by decode
system.cpu.decode.IdleCycles                   293160                       # Number of cycles decode is idle
system.cpu.decode.RunCycles                   1143614                       # Number of cycles decode is running
system.cpu.decode.SquashCycles                  24301                       # Number of cycles decode is squashing
system.cpu.decode.UnblockCycles                 89638                       # Number of cycles decode is unblocking
system.cpu.dtb.rdAccesses                      575379                       # TLB accesses on read requests
system.cpu.dtb.rdMisses                          2024                       # TLB misses on read requests
system.cpu.dtb.wrAccesses                      191879                       # TLB accesses on write requests
system.cpu.dtb.wrMisses                           165                       # TLB misses on write requests
system.cpu.fetch.Branches                      490160                       # Number of branches that fetch encountered
system.cpu.fetch.CacheLines                    244235                       # Number of cache lines fetched
system.cpu.fetch.Cycles                       2220896                       # Number of cycles fetch has run and was not squashing or blocked
system.cpu.fetch.IcacheSquashes                  4610                       # Number of outstanding Icache misses that were squashed
system.cpu.fetch.Insts                        2849890                       # Number of instructions fetch has processed
system.cpu.fetch.MiscStallCycles                  109                       # Number of cycles fetch has spent waiting on interrupts, or bad addresses, or out of MSHRs
system.cpu.fetch.PendingQuiesceStallCycles           10                       # Number of stall cycles due to pending quiesce instructions
system.cpu.fetch.PendingTrapStallCycles           598                       # Number of stall cycles due to pending traps
system.cpu.fetch.SquashCycles                   48602                       # Number of cycles fetch has spent squashing
system.cpu.fetch.branchRate                  0.179758                       # Number of branch fetches per cycle
system.cpu.fetch.icacheStallCycles             330913                       # Number of cycles fetch is stalled on an Icache miss
system.cpu.fetch.predictedBranches             251226                       # Number of branches that fetch has predicted taken
system.cpu.fetch.rate                        1.045148                       # Number of inst fetches per cycle
system.cpu.fetch.rateDist::samples            2576827                       # Number of instructions fetched each cycle (Total)
system.cpu.fetch.rateDist::mean              1.936191                       # Number of instructions fetched each cycle (Total)
system.cpu.fetch.rateDist::stdev             1.930213                       # Number of instructions fetched each cycle (Total)
system.cpu.fetch.rateDist::underflows               0      0.00%      0.00% # Number of instructions fetched each cycle (Total)
system.cpu.fetch.rateDist::0                  1224139     47.51%     47.51% # Number of instructions fetched each cycle (Total)
system.cpu.fetch.rateDist::1                    74584      2.89%     50.40% # Number of instructions fetched each cycle (Total)
system.cpu.fetch.rateDist::2                    60396      2.34%     52.74% # Number of instructions fetched each cycle (Total)
system.cpu.fetch.rateDist::3                    76980      2.99%     55.73% # Number of instructions fetched each cycle (Total)
system.cpu.fetch.rateDist::4                  1140728     44.27%    100.00% # Number of instructions fetched each cycle (Total)
system.cpu.fetch.rateDist::overflows                0      0.00%    100.00% # Number of instructions fetched each cycle (Total)
system.cpu.fetch.rateDist::min_value                0                       # Number of instructions fetched each cycle (Total)
system.cpu.fetch.rateDist::max_value                4                       # Number of instructions fetched each cycle (Total)
system.cpu.fetch.rateDist::total              2576827                       # Number of instructions fetched each cycle (Total)
system.cpu.fp_regfile_reads                    118542                       # number of floating regfile reads
system.cpu.fp_regfile_writes                    64814                       # number of floating regfile writes
system.cpu.fuPool.fu_ticks_busy::IntALU(0)    218270400                       # Total ticks fu was busy
system.cpu.fuPool.fu_ticks_busy::IntALU(1)    218270400                       # Total ticks fu was busy
system.cpu.fuPool.fu_ticks_busy::IntALU(2)    218270400                       # Total ticks fu was busy
system.cpu.fuPool.fu_ticks_busy::IntALU(3)    218270400                       # Total ticks fu was busy
system.cpu.fuPool.fu_ticks_busy::IntALU(4)    218270400                       # Total ticks fu was busy
system.cpu.fuPool.fu_ticks_busy::IntALU(5)    218270000                       # Total ticks fu was busy
system.cpu.fuPool.fu_ticks_busy::IntMultDiv(0)      8830400                       # Total ticks fu was busy
system.cpu.fuPool.fu_ticks_busy::IntMultDiv(1)      8830000                       # Total ticks fu was busy
system.cpu.fuPool.fu_ticks_busy::FP_ALU(0)       548800                       # Total ticks fu was busy
system.cpu.fuPool.fu_ticks_busy::FP_ALU(1)       548800                       # Total ticks fu was busy
system.cpu.fuPool.fu_ticks_busy::FP_ALU(2)       548800                       # Total ticks fu was busy
system.cpu.fuPool.fu_ticks_busy::FP_ALU(3)       548800                       # Total ticks fu was busy
system.cpu.fuPool.fu_ticks_busy::FP_MultDiv(0)            0                       # Total ticks fu was busy
system.cpu.fuPool.fu_ticks_busy::FP_MultDiv(1)            0                       # Total ticks fu was busy
system.cpu.fuPool.fu_ticks_busy::SIMD_Unit(0)      4343600                       # Total ticks fu was busy
system.cpu.fuPool.fu_ticks_busy::SIMD_Unit(1)      4307600                       # Total ticks fu was busy
system.cpu.fuPool.fu_ticks_busy::SIMD_Unit(2)      4514000                       # Total ticks fu was busy
system.cpu.fuPool.fu_ticks_busy::SIMD_Unit(3)      4550800                       # Total ticks fu was busy
system.cpu.fuPool.fu_ticks_busy::PredALU(0)            0                       # Total ticks fu was busy
system.cpu.fuPool.fu_ticks_busy::RdWrPort(0)     78238000                       # Total ticks fu was busy
system.cpu.fuPool.fu_ticks_busy::RdWrPort(1)     78170000                       # Total ticks fu was busy
system.cpu.fuPool.fu_ticks_busy::RdWrPort(2)     78164000                       # Total ticks fu was busy
system.cpu.fuPool.fu_ticks_busy::RdWrPort(3)     78205600                       # Total ticks fu was busy
system.cpu.fuPool.fu_ticks_busy::IprPort(0)            0                       # Total ticks fu was busy
system.cpu.fuPool.fu_ticks_busy::total     1659971200                       # Total ticks fu was busy
system.cpu.icache.prefetcher.num_hwpf_issued            0                       # number of hwpf issued
system.cpu.icache.prefetcher.pfBufferHit            0                       # number of redundant prefetches already in prefetch queue
system.cpu.icache.prefetcher.pfIdentified            0                       # number of prefetch candidates identified
system.cpu.icache.prefetcher.pfInCache              0                       # number of redundant prefetches already in cache/mshr dropped
system.cpu.icache.prefetcher.pfRemovedFull            0                       # number of prefetches dropped due to prefetch queue size
system.cpu.icache.prefetcher.pfSpanPage             0                       # number of prefetches that crossed the page
system.cpu.idleCycles                          149955                       # Total number of cycles that the CPU has spent unscheduled due to idling
system.cpu.iew.branchMispredicts                28634                       # Number of branch mispredicts detected at execute
system.cpu.iew.exec_branches                   376039                       # Number of branches executed
system.cpu.iew.exec_nop                             0                       # number of nop insts executed
system.cpu.iew.exec_rate                     1.518912                       # Inst execution rate
system.cpu.iew.exec_refs                       768976                       # number of memory reference insts executed
system.cpu.iew.exec_stores                     191868                       # Number of stores executed
system.cpu.iew.exec_swp                             0                       # number of swp insts executed
system.cpu.iew.iewBlockCycles                  683181                       # Number of cycles IEW is blocking
system.cpu.iew.iewDispLoadInsts                607566                       # Number of dispatched load instructions
system.cpu.iew.iewDispNonSpecInsts                919                       # Number of dispatched non-speculative instructions
system.cpu.iew.iewDispSquashedInsts               630                       # Number of squashed instructions skipped by dispatch
system.cpu.iew.iewDispStoreInsts               202386                       # Number of dispatched store instructions
system.cpu.iew.iewDispatchedInsts             4495134                       # Number of instructions dispatched to IQ
system.cpu.iew.iewExecLoadInsts                577108                       # Number of load instructions executed
system.cpu.iew.iewExecSquashedInsts             34267                       # Number of squashed instructions skipped in execute
system.cpu.iew.iewExecutedInsts               4141742                       # Number of executed instructions
system.cpu.iew.iewIQFullEvents                   3276                       # Number of times the IQ has become full, causing a stall
system.cpu.iew.iewIdleCycles                        0                       # Number of cycles IEW is idle
system.cpu.iew.iewLSQFullEvents                  9461                       # Number of times the LSQ has become full, causing a stall
system.cpu.iew.iewSquashCycles                  24301                       # Number of cycles IEW is squashing
system.cpu.iew.iewUnblockCycles                 15534                       # Number of cycles IEW is unblocking
system.cpu.iew.lsq.thread0.blockedLoads             0                       # Number of blocked loads due to partial load-store forwarding
system.cpu.iew.lsq.thread0.cacheBlocked           607                       # Number of times an access to memory failed due to the cache being blocked
system.cpu.iew.lsq.thread0.forwLoads            40295                       # Number of loads that had data forwarded from stores
system.cpu.iew.lsq.thread0.ignoredResponses          235                       # Number of memory responses ignored because the instruction is squashed
system.cpu.iew.lsq.thread0.invAddrLoads             0                       # Number of loads ignored due to an invalid address
system.cpu.iew.lsq.thread0.invAddrSwpfs             0                       # Number of software prefetches ignored due to an invalid address
system.cpu.iew.lsq.thread0.memOrderViolation           84                       # Number of memory ordering violations
system.cpu.iew.lsq.thread0.rescheduledLoads            0                       # Number of loads that were rescheduled
system.cpu.iew.lsq.thread0.squashedLoads       115960                       # Number of loads squashed
system.cpu.iew.lsq.thread0.squashedStores        30639                       # Number of stores squashed
system.cpu.iew.memOrderViolationEvents             84                       # Number of memory order violations
system.cpu.iew.predictedNotTakenIncorrect        20534                       # Number of branches that were predicted not taken incorrectly
system.cpu.iew.predictedTakenIncorrect           8100                       # Number of branches that were predicted taken incorrectly
system.cpu.iew.wb_consumers                   5820412                       # num instructions consuming a value
system.cpu.iew.wb_count                       4119833                       # cumulative count of insts written-back
system.cpu.iew.wb_fanout                     0.566179                       # average fanout of values written-back
system.cpu.iew.wb_producers                   3295395                       # num instructions producing a value
system.cpu.iew.wb_rate                       1.510877                       # insts written-back per cycle
system.cpu.iew.wb_sent                        4126695                       # cumulative count of insts sent to commit
system.cpu.int_regfile_reads                  6422332                       # number of integer regfile reads
system.cpu.int_regfile_writes                 3564879                       # number of integer regfile writes
system.cpu.ipc                               0.761850                       # IPC: Instructions Per Cycle
system.cpu.ipc_total                         0.761850                       # IPC: Total IPC of All Threads
system.cpu.iq.FU_type_0::No_OpClass             26081      0.62%      0.62% # Type of FU issued
system.cpu.iq.FU_type_0::IntAlu               3274056     78.40%     79.03% # Type of FU issued
system.cpu.iq.FU_type_0::IntMult                 2323      0.06%     79.08% # Type of FU issued
system.cpu.iq.FU_type_0::IntDiv                 41828      1.00%     80.08% # Type of FU issued
system.cpu.iq.FU_type_0::FloatAdd                4260      0.10%     80.19% # Type of FU issued
system.cpu.iq.FU_type_0::FloatCmp                   0      0.00%     80.19% # Type of FU issued
system.cpu.iq.FU_type_0::FloatCvt                1228      0.03%     80.21% # Type of FU issued
system.cpu.iq.FU_type_0::FloatMult                  0      0.00%     80.21% # Type of FU issued
system.cpu.iq.FU_type_0::FloatMultAcc               0      0.00%     80.21% # Type of FU issued
system.cpu.iq.FU_type_0::FloatDiv                   0      0.00%     80.21% # Type of FU issued
system.cpu.iq.FU_type_0::FloatMisc                  0      0.00%     80.21% # Type of FU issued
system.cpu.iq.FU_type_0::FloatSqrt                  0      0.00%     80.21% # Type of FU issued
system.cpu.iq.FU_type_0::SimdAdd                 6784      0.16%     80.38% # Type of FU issued
system.cpu.iq.FU_type_0::SimdAddAcc                 0      0.00%     80.38% # Type of FU issued
system.cpu.iq.FU_type_0::SimdAlu                14801      0.35%     80.73% # Type of FU issued
system.cpu.iq.FU_type_0::SimdCmp                    0      0.00%     80.73% # Type of FU issued
system.cpu.iq.FU_type_0::SimdCvt                13668      0.33%     81.06% # Type of FU issued
system.cpu.iq.FU_type_0::SimdMisc                7032      0.17%     81.23% # Type of FU issued
system.cpu.iq.FU_type_0::SimdMult                   0      0.00%     81.23% # Type of FU issued
system.cpu.iq.FU_type_0::SimdMultAcc                0      0.00%     81.23% # Type of FU issued
system.cpu.iq.FU_type_0::SimdShift               2005      0.05%     81.28% # Type of FU issued
system.cpu.iq.FU_type_0::SimdShiftAcc               0      0.00%     81.28% # Type of FU issued
system.cpu.iq.FU_type_0::SimdDiv                    0      0.00%     81.28% # Type of FU issued
system.cpu.iq.FU_type_0::SimdSqrt                   0      0.00%     81.28% # Type of FU issued
system.cpu.iq.FU_type_0::SimdFloatAdd               0      0.00%     81.28% # Type of FU issued
system.cpu.iq.FU_type_0::SimdFloatAlu               0      0.00%     81.28% # Type of FU issued
system.cpu.iq.FU_type_0::SimdFloatCmp               0      0.00%     81.28% # Type of FU issued
system.cpu.iq.FU_type_0::SimdFloatCvt               0      0.00%     81.28% # Type of FU issued
system.cpu.iq.FU_type_0::SimdFloatDiv               0      0.00%     81.28% # Type of FU issued
system.cpu.iq.FU_type_0::SimdFloatMisc              0      0.00%     81.28% # Type of FU issued
system.cpu.iq.FU_type_0::SimdFloatMult              0      0.00%     81.28% # Type of FU issued
system.cpu.iq.FU_type_0::SimdFloatMultAcc            0      0.00%     81.28% # Type of FU issued
system.cpu.iq.FU_type_0::SimdFloatSqrt              0      0.00%     81.28% # Type of FU issued
system.cpu.iq.FU_type_0::SimdReduceAdd              0      0.00%     81.28% # Type of FU issued
system.cpu.iq.FU_type_0::SimdReduceAlu              0      0.00%     81.28% # Type of FU issued
system.cpu.iq.FU_type_0::SimdReduceCmp              0      0.00%     81.28% # Type of FU issued
system.cpu.iq.FU_type_0::SimdFloatReduceAdd            0      0.00%     81.28% # Type of FU issued
system.cpu.iq.FU_type_0::SimdFloatReduceCmp            0      0.00%     81.28% # Type of FU issued
system.cpu.iq.FU_type_0::SimdAes                    0      0.00%     81.28% # Type of FU issued
system.cpu.iq.FU_type_0::SimdAesMix                 0      0.00%     81.28% # Type of FU issued
system.cpu.iq.FU_type_0::SimdSha1Hash               0      0.00%     81.28% # Type of FU issued
system.cpu.iq.FU_type_0::SimdSha1Hash2              0      0.00%     81.28% # Type of FU issued
system.cpu.iq.FU_type_0::SimdSha256Hash             0      0.00%     81.28% # Type of FU issued
system.cpu.iq.FU_type_0::SimdSha256Hash2            0      0.00%     81.28% # Type of FU issued
system.cpu.iq.FU_type_0::SimdShaSigma2              0      0.00%     81.28% # Type of FU issued
system.cpu.iq.FU_type_0::SimdShaSigma3              0      0.00%     81.28% # Type of FU issued
system.cpu.iq.FU_type_0::SimdPredAlu                0      0.00%     81.28% # Type of FU issued
system.cpu.iq.FU_type_0::MemRead               562941     13.48%     94.76% # Type of FU issued
system.cpu.iq.FU_type_0::MemWrite              180857      4.33%     99.09% # Type of FU issued
system.cpu.iq.FU_type_0::FloatMemRead           24469      0.59%     99.67% # Type of FU issued
system.cpu.iq.FU_type_0::FloatMemWrite          13679      0.33%    100.00% # Type of FU issued
system.cpu.iq.FU_type_0::IprAccess                  0      0.00%    100.00% # Type of FU issued
system.cpu.iq.FU_type_0::InstPrefetch               0      0.00%    100.00% # Type of FU issued
system.cpu.iq.FU_type_0::total                4176012                       # Type of FU issued
system.cpu.iq.fp_alu_accesses                   88894                       # Number of floating point alu accesses
system.cpu.iq.fp_inst_queue_reads              179020                       # Number of floating instruction queue reads
system.cpu.iq.fp_inst_queue_wakeup_accesses        85750                       # Number of floating instruction queue wakeup accesses
system.cpu.iq.fp_inst_queue_writes             127546                       # Number of floating instruction queue writes
system.cpu.iq.fu_busy_cnt                           0                       # FU busy when requested
system.cpu.iq.fu_busy_rate                          0                       # FU busy rate (busy events/executed inst)
system.cpu.iq.fu_full::No_OpClass                   0                       # attempts to use FU when none available
system.cpu.iq.fu_full::IntAlu                       0                       # attempts to use FU when none available
system.cpu.iq.fu_full::IntMult                      0                       # attempts to use FU when none available
system.cpu.iq.fu_full::IntDiv                       0                       # attempts to use FU when none available
system.cpu.iq.fu_full::FloatAdd                     0                       # attempts to use FU when none available
system.cpu.iq.fu_full::FloatCmp                     0                       # attempts to use FU when none available
system.cpu.iq.fu_full::FloatCvt                     0                       # attempts to use FU when none available
system.cpu.iq.fu_full::FloatMult                    0                       # attempts to use FU when none available
system.cpu.iq.fu_full::FloatMultAcc                 0                       # attempts to use FU when none available
system.cpu.iq.fu_full::FloatDiv                     0                       # attempts to use FU when none available
system.cpu.iq.fu_full::FloatMisc                    0                       # attempts to use FU when none available
system.cpu.iq.fu_full::FloatSqrt                    0                       # attempts to use FU when none available
system.cpu.iq.fu_full::SimdAdd                      0                       # attempts to use FU when none available
system.cpu.iq.fu_full::SimdAddAcc                   0                       # attempts to use FU when none available
system.cpu.iq.fu_full::SimdAlu                      0                       # attempts to use FU when none available
system.cpu.iq.fu_full::SimdCmp                      0                       # attempts to use FU when none available
system.cpu.iq.fu_full::SimdCvt                      0                       # attempts to use FU when none available
system.cpu.iq.fu_full::SimdMisc                     0                       # attempts to use FU when none available
system.cpu.iq.fu_full::SimdMult                     0                       # attempts to use FU when none available
system.cpu.iq.fu_full::SimdMultAcc                  0                       # attempts to use FU when none available
system.cpu.iq.fu_full::SimdShift                    0                       # attempts to use FU when none available
system.cpu.iq.fu_full::SimdShiftAcc                 0                       # attempts to use FU when none available
system.cpu.iq.fu_full::SimdDiv                      0                       # attempts to use FU when none available
system.cpu.iq.fu_full::SimdSqrt                     0                       # attempts to use FU when none available
system.cpu.iq.fu_full::SimdFloatAdd                 0                       # attempts to use FU when none available
system.cpu.iq.fu_full::SimdFloatAlu                 0                       # attempts to use FU when none available
system.cpu.iq.fu_full::SimdFloatCmp                 0                       # attempts to use FU when none available
system.cpu.iq.fu_full::SimdFloatCvt                 0                       # attempts to use FU when none available
system.cpu.iq.fu_full::SimdFloatDiv                 0                       # attempts to use FU when none available
system.cpu.iq.fu_full::SimdFloatMisc                0                       # attempts to use FU when none available
system.cpu.iq.fu_full::SimdFloatMult                0                       # attempts to use FU when none available
system.cpu.iq.fu_full::SimdFloatMultAcc             0                       # attempts to use FU when none available
system.cpu.iq.fu_full::SimdFloatSqrt                0                       # attempts to use FU when none available
system.cpu.iq.fu_full::SimdReduceAdd                0                       # attempts to use FU when none available
system.cpu.iq.fu_full::SimdReduceAlu                0                       # attempts to use FU when none available
system.cpu.iq.fu_full::SimdReduceCmp                0                       # attempts to use FU when none available
system.cpu.iq.fu_full::SimdFloatReduceAdd            0                       # attempts to use FU when none available
system.cpu.iq.fu_full::SimdFloatReduceCmp            0                       # attempts to use FU when none available
system.cpu.iq.fu_full::SimdAes                      0                       # attempts to use FU when none available
system.cpu.iq.fu_full::SimdAesMix                   0                       # attempts to use FU when none available
system.cpu.iq.fu_full::SimdSha1Hash                 0                       # attempts to use FU when none available
system.cpu.iq.fu_full::SimdSha1Hash2                0                       # attempts to use FU when none available
system.cpu.iq.fu_full::SimdSha256Hash               0                       # attempts to use FU when none available
system.cpu.iq.fu_full::SimdSha256Hash2              0                       # attempts to use FU when none available
system.cpu.iq.fu_full::SimdShaSigma2                0                       # attempts to use FU when none available
system.cpu.iq.fu_full::SimdShaSigma3                0                       # attempts to use FU when none available
system.cpu.iq.fu_full::SimdPredAlu                  0                       # attempts to use FU when none available
system.cpu.iq.fu_full::MemRead                      0                       # attempts to use FU when none available
system.cpu.iq.fu_full::MemWrite                     0                       # attempts to use FU when none available
system.cpu.iq.fu_full::FloatMemRead                 0                       # attempts to use FU when none available
system.cpu.iq.fu_full::FloatMemWrite                0                       # attempts to use FU when none available
system.cpu.iq.fu_full::IprAccess                    0                       # attempts to use FU when none available
system.cpu.iq.fu_full::InstPrefetch                 0                       # attempts to use FU when none available
system.cpu.iq.int_alu_accesses                4061037                       # Number of integer alu accesses
system.cpu.iq.int_inst_queue_reads           10767997                       # Number of integer instruction queue reads
system.cpu.iq.int_inst_queue_wakeup_accesses      4034083                       # Number of integer instruction queue wakeup accesses
system.cpu.iq.int_inst_queue_writes           5255189                       # Number of integer instruction queue writes
system.cpu.iq.iqInstsAdded                    4494043                       # Number of instructions added to the IQ (excludes non-spec)
system.cpu.iq.iqInstsIssued                   4176012                       # Number of instructions issued
system.cpu.iq.iqNonSpecInstsAdded                1091                       # Number of non-speculative instructions added to the IQ
system.cpu.iq.iqSquashedInstsExamined          887519                       # Number of squashed instructions iterated over during squash; mainly for profiling
system.cpu.iq.iqSquashedInstsIssued             18169                       # Number of squashed instructions issued
system.cpu.iq.iqSquashedNonSpecRemoved            359                       # Number of squashed non-spec instructions that were removed
system.cpu.iq.iqSquashedOperandsExamined      1319157                       # Number of squashed operands that are examined and possibly removed from graph
system.cpu.iq.issued_per_cycle::samples       2576827                       # Number of insts issued each cycle
system.cpu.iq.issued_per_cycle::mean         1.620602                       # Number of insts issued each cycle
system.cpu.iq.issued_per_cycle::stdev        1.667757                       # Number of insts issued each cycle
system.cpu.iq.issued_per_cycle::underflows            0      0.00%      0.00% # Number of insts issued each cycle
system.cpu.iq.issued_per_cycle::0             1162934     45.13%     45.13% # Number of insts issued each cycle
system.cpu.iq.issued_per_cycle::1              177268      6.88%     52.01% # Number of insts issued each cycle
system.cpu.iq.issued_per_cycle::2              302949     11.76%     63.77% # Number of insts issued each cycle
system.cpu.iq.issued_per_cycle::3              341858     13.27%     77.03% # Number of insts issued each cycle
system.cpu.iq.issued_per_cycle::4              591818     22.97%    100.00% # Number of insts issued each cycle
system.cpu.iq.issued_per_cycle::overflows            0      0.00%    100.00% # Number of insts issued each cycle
system.cpu.iq.issued_per_cycle::min_value            0                       # Number of insts issued each cycle
system.cpu.iq.issued_per_cycle::max_value            4                       # Number of insts issued each cycle
system.cpu.iq.issued_per_cycle::total         2576827                       # Number of insts issued each cycle
system.cpu.iq.rate                           1.531480                       # Inst issue rate
system.cpu.iq.vec_alu_accesses                      0                       # Number of vector alu accesses
system.cpu.iq.vec_inst_queue_reads                  0                       # Number of vector instruction queue reads
system.cpu.iq.vec_inst_queue_wakeup_accesses            0                       # Number of vector instruction queue wakeup accesses
system.cpu.iq.vec_inst_queue_writes                 0                       # Number of vector instruction queue writes
system.cpu.itb.rdAccesses                           0                       # TLB accesses on read requests
system.cpu.itb.rdMisses                             0                       # TLB misses on read requests
system.cpu.itb.wrAccesses                      244335                       # TLB accesses on write requests
system.cpu.itb.wrMisses                           339                       # TLB misses on write requests
system.cpu.memDep0.conflictingLoads             12070                       # Number of conflicting loads.
system.cpu.memDep0.conflictingStores             5357                       # Number of conflicting stores.
system.cpu.memDep0.insertedLoads               607566                       # Number of loads inserted to the mem dependence unit.
system.cpu.memDep0.insertedStores              202386                       # Number of stores inserted to the mem dependence unit.
system.cpu.misc_regfile_reads                 1558291                       # number of misc regfile reads
system.cpu.misc_regfile_writes                    675                       # number of misc regfile writes
system.cpu.numCycles                          2726782                       # number of cpu cycles simulated
system.cpu.numWorkItemsCompleted                    0                       # number of work items this cpu completed
system.cpu.numWorkItemsStarted                      0                       # number of work items this cpu started
system.cpu.process.numSyscalls                     56                       # Number of system calls
system.cpu.rename.BlockCycles                  832282                       # Number of cycles rename is blocking
system.cpu.rename.CommittedMaps               4957851                       # Number of HB maps that are committed
system.cpu.rename.FullRegisterEvents              256                       # Number of times there has been no free registers
system.cpu.rename.IQFullEvents                  47988                       # Number of times rename has blocked due to IQ full
system.cpu.rename.IdleCycles                   343984                       # Number of cycles rename is idle
system.cpu.rename.LQFullEvents                  24629                       # Number of times rename has blocked due to LQ full
system.cpu.rename.ROBFullEvents                  6397                       # Number of times rename has blocked due to ROB full
system.cpu.rename.RenameLookups              12106739                       # Number of register rename lookups that rename has made
system.cpu.rename.RenamedInsts                4636963                       # Number of instructions processed by rename
system.cpu.rename.RenamedOperands             6355985                       # Number of destination operands rename has renamed
system.cpu.rename.RunCycles                   1174019                       # Number of cycles rename is running
system.cpu.rename.SQFullEvents                  72494                       # Number of times rename has blocked due to SQ full
system.cpu.rename.SquashCycles                  24301                       # Number of cycles rename is squashing
system.cpu.rename.UnblockCycles                182827                       # Number of cycles rename is unblocking
system.cpu.rename.UndoneMaps                  1398111                       # Number of HB maps that are undone due to squashing
system.cpu.rename.fp_rename_lookups            150756                       # Number of floating rename lookups
system.cpu.rename.int_rename_lookups          7370395                       # Number of integer rename lookups
system.cpu.rename.serializeStallCycles          19414                       # count of cycles rename stalled for serializing inst
system.cpu.rename.serializingInsts                869                       # count of serializing insts renamed
system.cpu.rename.skidInsts                    210313                       # count of insts added to the skid buffer
system.cpu.rename.tempSerializingInsts            915                       # count of temporary serializing insts renamed
system.cpu.rob.rob_reads                      6231873                       # The number of ROB reads
system.cpu.rob.rob_writes                     9233175                       # The number of ROB writes
system.cpu.timesIdled                            1468                       # Number of times that the entire CPU went into an idle state and unscheduled itself
system.l2bus.snoop_filter.hit_multi_requests            8                       # Number of requests hitting in the snoop filter with multiple (>1) holders of the requested data.
system.l2bus.snoop_filter.hit_multi_snoops            0                       # Number of snoops hitting in the snoop filter with multiple (>1) holders of the requested data.
system.l2bus.snoop_filter.hit_single_requests        18156                       # Number of requests hitting in the snoop filter with a single holder of the requested data.
system.l2bus.snoop_filter.hit_single_snoops          412                       # Number of snoops hitting in the snoop filter with a single holder of the requested data.
system.l2bus.snoop_filter.tot_requests          37592                       # Total number of requests made to the snoop filter.
system.l2bus.snoop_filter.tot_snoops              412                       # Total number of snoops made to the snoop filter.
system.l2cache.prefetcher.num_hwpf_issued          797                       # number of hwpf issued
system.l2cache.prefetcher.pfBufferHit               0                       # number of redundant prefetches already in prefetch queue
system.l2cache.prefetcher.pfIdentified            797                       # number of prefetch candidates identified
system.l2cache.prefetcher.pfInCache                 0                       # number of redundant prefetches already in cache/mshr dropped
system.l2cache.prefetcher.pfRemovedFull             0                       # number of prefetches dropped due to prefetch queue size
system.l2cache.prefetcher.pfSpanPage              159                       # number of prefetches that crossed the page
system.membus.snoop_filter.hit_multi_requests            0                       # Number of requests hitting in the snoop filter with multiple (>1) holders of the requested data.
system.membus.snoop_filter.hit_multi_snoops            0                       # Number of snoops hitting in the snoop filter with multiple (>1) holders of the requested data.
system.membus.snoop_filter.hit_single_requests         9257                       # Number of requests hitting in the snoop filter with a single holder of the requested data.
system.membus.snoop_filter.hit_single_snoops            0                       # Number of snoops hitting in the snoop filter with a single holder of the requested data.
system.membus.snoop_filter.tot_requests         22633                       # Total number of requests made to the snoop filter.
system.membus.snoop_filter.tot_snoops               0                       # Total number of snoops made to the snoop filter.
system.membus.pwrStateResidencyTicks::UNDEFINED   1090712400                       # Cumulative time (in ticks) in various power states
system.membus.trans_dist::ReadResp              12021                       # Transaction distribution
system.membus.trans_dist::WritebackDirty         1342                       # Transaction distribution
system.membus.trans_dist::CleanEvict             7915                       # Transaction distribution
system.membus.trans_dist::ReadExReq              1355                       # Transaction distribution
system.membus.trans_dist::ReadExResp             1355                       # Transaction distribution
system.membus.trans_dist::ReadSharedReq         12021                       # Transaction distribution
system.membus.pkt_count_system.l2cache.mem_side::system.mem_ctrl.port        36009                       # Packet count per connected master and slave (bytes)
system.membus.pkt_count_system.l2cache.mem_side::total        36009                       # Packet count per connected master and slave (bytes)
system.membus.pkt_count::total                  36009                       # Packet count per connected master and slave (bytes)
system.membus.pkt_size_system.l2cache.mem_side::system.mem_ctrl.port       941952                       # Cumulative packet size per connected master and slave (bytes)
system.membus.pkt_size_system.l2cache.mem_side::total       941952                       # Cumulative packet size per connected master and slave (bytes)
system.membus.pkt_size::total                  941952                       # Cumulative packet size per connected master and slave (bytes)
system.membus.snoops                                0                       # Total snoops (count)
system.membus.snoopTraffic                          0                       # Total snoop traffic (bytes)
system.membus.snoop_fanout::samples             13376                       # Request fanout histogram
system.membus.snoop_fanout::mean                    0                       # Request fanout histogram
system.membus.snoop_fanout::stdev                   0                       # Request fanout histogram
system.membus.snoop_fanout::underflows              0      0.00%      0.00% # Request fanout histogram
system.membus.snoop_fanout::0                   13376    100.00%    100.00% # Request fanout histogram
system.membus.snoop_fanout::1                       0      0.00%    100.00% # Request fanout histogram
system.membus.snoop_fanout::overflows               0      0.00%    100.00% # Request fanout histogram
system.membus.snoop_fanout::min_value               0                       # Request fanout histogram
system.membus.snoop_fanout::max_value               0                       # Request fanout histogram
system.membus.snoop_fanout::total               13376                       # Request fanout histogram
system.membus.reqLayer2.occupancy            11230791                       # Layer occupancy (ticks)
system.membus.reqLayer2.utilization               1.0                       # Layer utilization (%)
system.membus.respLayer0.occupancy           29060009                       # Layer occupancy (ticks)
system.membus.respLayer0.utilization              2.7                       # Layer utilization (%)
system.l2bus.pwrStateResidencyTicks::UNDEFINED   1090712400                       # Cumulative time (in ticks) in various power states
system.l2bus.trans_dist::ReadResp               17346                       # Transaction distribution
system.l2bus.trans_dist::WritebackDirty          4121                       # Transaction distribution
system.l2bus.trans_dist::CleanEvict             23370                       # Transaction distribution
system.l2bus.trans_dist::HardPFReq               1106                       # Transaction distribution
system.l2bus.trans_dist::ReadExReq               2090                       # Transaction distribution
system.l2bus.trans_dist::ReadExResp              2090                       # Transaction distribution
system.l2bus.trans_dist::ReadSharedReq          17346                       # Transaction distribution
system.l2bus.pkt_count_system.cpu.icache.mem_side::system.l2cache.cpu_side         7521                       # Packet count per connected master and slave (bytes)
system.l2bus.pkt_count_system.cpu.dcache.mem_side::system.l2cache.cpu_side        49505                       # Packet count per connected master and slave (bytes)
system.l2bus.pkt_count::total                   57026                       # Packet count per connected master and slave (bytes)
system.l2bus.pkt_size_system.cpu.icache.mem_side::system.l2cache.cpu_side       165824                       # Cumulative packet size per connected master and slave (bytes)
system.l2bus.pkt_size_system.cpu.dcache.mem_side::system.l2cache.cpu_side      1255808                       # Cumulative packet size per connected master and slave (bytes)
system.l2bus.pkt_size::total                  1421632                       # Cumulative packet size per connected master and slave (bytes)
system.l2bus.snoops                             10443                       # Total snoops (count)
system.l2bus.snoopTraffic                       86016                       # Total snoop traffic (bytes)
system.l2bus.snoop_fanout::samples              29877                       # Request fanout histogram
system.l2bus.snoop_fanout::mean              0.014058                       # Request fanout histogram
system.l2bus.snoop_fanout::stdev             0.117731                       # Request fanout histogram
system.l2bus.snoop_fanout::underflows               0      0.00%      0.00% # Request fanout histogram
system.l2bus.snoop_fanout::0                    29457     98.59%     98.59% # Request fanout histogram
system.l2bus.snoop_fanout::1                      420      1.41%    100.00% # Request fanout histogram
system.l2bus.snoop_fanout::2                        0      0.00%    100.00% # Request fanout histogram
system.l2bus.snoop_fanout::overflows                0      0.00%    100.00% # Request fanout histogram
system.l2bus.snoop_fanout::min_value                0                       # Request fanout histogram
system.l2bus.snoop_fanout::max_value                1                       # Request fanout histogram
system.l2bus.snoop_fanout::total                29877                       # Request fanout histogram
system.l2bus.respLayer1.occupancy            20211999                       # Layer occupancy (ticks)
system.l2bus.respLayer1.utilization               1.9                       # Layer utilization (%)
system.l2bus.reqLayer0.occupancy             18656420                       # Layer occupancy (ticks)
system.l2bus.reqLayer0.utilization                1.7                       # Layer utilization (%)
system.l2bus.respLayer0.occupancy             3111999                       # Layer occupancy (ticks)
system.l2bus.respLayer0.utilization               0.3                       # Layer utilization (%)
system.clk_domain.clock                           400                       # Clock period in ticks
system.clk_domain.voltage_domain.voltage            1                       # Voltage in Volts
system.cpu.pwrStateResidencyTicks::ON      1090712400                       # Cumulative time (in ticks) in various power states
system.cpu.icache.pwrStateResidencyTicks::UNDEFINED   1090712400                       # Cumulative time (in ticks) in various power states
system.cpu.icache.demand_hits::.cpu.inst       240943                       # number of demand (read+write) hits
system.cpu.icache.demand_hits::total           240943                       # number of demand (read+write) hits
system.cpu.icache.overall_hits::.cpu.inst       240943                       # number of overall hits
system.cpu.icache.overall_hits::total          240943                       # number of overall hits
system.cpu.icache.demand_misses::.cpu.inst         3291                       # number of demand (read+write) misses
system.cpu.icache.demand_misses::total           3291                       # number of demand (read+write) misses
system.cpu.icache.overall_misses::.cpu.inst         3291                       # number of overall misses
system.cpu.icache.overall_misses::total          3291                       # number of overall misses
system.cpu.icache.demand_miss_latency::.cpu.inst    168255200                       # number of demand (read+write) miss cycles
system.cpu.icache.demand_miss_latency::total    168255200                       # number of demand (read+write) miss cycles
system.cpu.icache.overall_miss_latency::.cpu.inst    168255200                       # number of overall miss cycles
system.cpu.icache.overall_miss_latency::total    168255200                       # number of overall miss cycles
system.cpu.icache.demand_accesses::.cpu.inst       244234                       # number of demand (read+write) accesses
system.cpu.icache.demand_accesses::total       244234                       # number of demand (read+write) accesses
system.cpu.icache.overall_accesses::.cpu.inst       244234                       # number of overall (read+write) accesses
system.cpu.icache.overall_accesses::total       244234                       # number of overall (read+write) accesses
system.cpu.icache.demand_miss_rate::.cpu.inst     0.013475                       # miss rate for demand accesses
system.cpu.icache.demand_miss_rate::total     0.013475                       # miss rate for demand accesses
system.cpu.icache.overall_miss_rate::.cpu.inst     0.013475                       # miss rate for overall accesses
system.cpu.icache.overall_miss_rate::total     0.013475                       # miss rate for overall accesses
system.cpu.icache.demand_avg_miss_latency::.cpu.inst 51125.858402                       # average overall miss latency
system.cpu.icache.demand_avg_miss_latency::total 51125.858402                       # average overall miss latency
system.cpu.icache.overall_avg_miss_latency::.cpu.inst 51125.858402                       # average overall miss latency
system.cpu.icache.overall_avg_miss_latency::total 51125.858402                       # average overall miss latency
system.cpu.icache.blocked_cycles::no_mshrs           53                       # number of cycles access was blocked
system.cpu.icache.blocked_cycles::no_targets            0                       # number of cycles access was blocked
system.cpu.icache.blocked::no_mshrs                 3                       # number of cycles access was blocked
system.cpu.icache.blocked::no_targets               0                       # number of cycles access was blocked
system.cpu.icache.avg_blocked_cycles::no_mshrs    17.666667                       # average number of cycles each access was blocked
system.cpu.icache.avg_blocked_cycles::no_targets          nan                       # average number of cycles each access was blocked
system.cpu.icache.demand_mshr_hits::.cpu.inst          698                       # number of demand (read+write) MSHR hits
system.cpu.icache.demand_mshr_hits::total          698                       # number of demand (read+write) MSHR hits
system.cpu.icache.overall_mshr_hits::.cpu.inst          698                       # number of overall MSHR hits
system.cpu.icache.overall_mshr_hits::total          698                       # number of overall MSHR hits
system.cpu.icache.demand_mshr_misses::.cpu.inst         2593                       # number of demand (read+write) MSHR misses
system.cpu.icache.demand_mshr_misses::total         2593                       # number of demand (read+write) MSHR misses
system.cpu.icache.overall_mshr_misses::.cpu.inst         2593                       # number of overall MSHR misses
system.cpu.icache.overall_mshr_misses::total         2593                       # number of overall MSHR misses
system.cpu.icache.demand_mshr_miss_latency::.cpu.inst    132855600                       # number of demand (read+write) MSHR miss cycles
system.cpu.icache.demand_mshr_miss_latency::total    132855600                       # number of demand (read+write) MSHR miss cycles
system.cpu.icache.overall_mshr_miss_latency::.cpu.inst    132855600                       # number of overall MSHR miss cycles
system.cpu.icache.overall_mshr_miss_latency::total    132855600                       # number of overall MSHR miss cycles
system.cpu.icache.demand_mshr_miss_rate::.cpu.inst     0.010617                       # mshr miss rate for demand accesses
system.cpu.icache.demand_mshr_miss_rate::total     0.010617                       # mshr miss rate for demand accesses
system.cpu.icache.overall_mshr_miss_rate::.cpu.inst     0.010617                       # mshr miss rate for overall accesses
system.cpu.icache.overall_mshr_miss_rate::total     0.010617                       # mshr miss rate for overall accesses
system.cpu.icache.demand_avg_mshr_miss_latency::.cpu.inst 51236.251446                       # average overall mshr miss latency
system.cpu.icache.demand_avg_mshr_miss_latency::total 51236.251446                       # average overall mshr miss latency
system.cpu.icache.overall_avg_mshr_miss_latency::.cpu.inst 51236.251446                       # average overall mshr miss latency
system.cpu.icache.overall_avg_mshr_miss_latency::total 51236.251446                       # average overall mshr miss latency
system.cpu.icache.replacements                   2337                       # number of replacements
system.cpu.icache.ReadReq_hits::.cpu.inst       240943                       # number of ReadReq hits
system.cpu.icache.ReadReq_hits::total          240943                       # number of ReadReq hits
system.cpu.icache.ReadReq_misses::.cpu.inst         3291                       # number of ReadReq misses
system.cpu.icache.ReadReq_misses::total          3291                       # number of ReadReq misses
system.cpu.icache.ReadReq_miss_latency::.cpu.inst    168255200                       # number of ReadReq miss cycles
system.cpu.icache.ReadReq_miss_latency::total    168255200                       # number of ReadReq miss cycles
system.cpu.icache.ReadReq_accesses::.cpu.inst       244234                       # number of ReadReq accesses(hits+misses)
system.cpu.icache.ReadReq_accesses::total       244234                       # number of ReadReq accesses(hits+misses)
system.cpu.icache.ReadReq_miss_rate::.cpu.inst     0.013475                       # miss rate for ReadReq accesses
system.cpu.icache.ReadReq_miss_rate::total     0.013475                       # miss rate for ReadReq accesses
system.cpu.icache.ReadReq_avg_miss_latency::.cpu.inst 51125.858402                       # average ReadReq miss latency
system.cpu.icache.ReadReq_avg_miss_latency::total 51125.858402                       # average ReadReq miss latency
system.cpu.icache.ReadReq_mshr_hits::.cpu.inst          698                       # number of ReadReq MSHR hits
system.cpu.icache.ReadReq_mshr_hits::total          698                       # number of ReadReq MSHR hits
system.cpu.icache.ReadReq_mshr_misses::.cpu.inst         2593                       # number of ReadReq MSHR misses
system.cpu.icache.ReadReq_mshr_misses::total         2593                       # number of ReadReq MSHR misses
system.cpu.icache.ReadReq_mshr_miss_latency::.cpu.inst    132855600                       # number of ReadReq MSHR miss cycles
system.cpu.icache.ReadReq_mshr_miss_latency::total    132855600                       # number of ReadReq MSHR miss cycles
system.cpu.icache.ReadReq_mshr_miss_rate::.cpu.inst     0.010617                       # mshr miss rate for ReadReq accesses
system.cpu.icache.ReadReq_mshr_miss_rate::total     0.010617                       # mshr miss rate for ReadReq accesses
system.cpu.icache.ReadReq_avg_mshr_miss_latency::.cpu.inst 51236.251446                       # average ReadReq mshr miss latency
system.cpu.icache.ReadReq_avg_mshr_miss_latency::total 51236.251446                       # average ReadReq mshr miss latency
system.cpu.icache.prefetcher.pwrStateResidencyTicks::UNDEFINED   1090712400                       # Cumulative time (in ticks) in various power states
system.cpu.icache.tags.pwrStateResidencyTicks::UNDEFINED   1090712400                       # Cumulative time (in ticks) in various power states
system.cpu.icache.tags.tagsinuse           253.476120                       # Cycle average of tags in use
system.cpu.icache.tags.total_refs              213118                       # Total number of references to valid blocks.
system.cpu.icache.tags.sampled_refs              2337                       # Sample count of references to valid blocks.
system.cpu.icache.tags.avg_refs             91.192982                       # Average number of references to valid blocks.
system.cpu.icache.tags.warmup_cycle             66400                       # Cycle when the warmup percentage was hit.
system.cpu.icache.tags.occ_blocks::.cpu.inst   253.476120                       # Average occupied blocks per requestor
system.cpu.icache.tags.occ_percent::.cpu.inst     0.990141                       # Average percentage of cache occupancy
system.cpu.icache.tags.occ_percent::total     0.990141                       # Average percentage of cache occupancy
system.cpu.icache.tags.occ_task_id_blocks::1024          256                       # Occupied blocks per task id
system.cpu.icache.tags.age_task_id_blocks_1024::0           67                       # Occupied blocks per task id
system.cpu.icache.tags.age_task_id_blocks_1024::1          157                       # Occupied blocks per task id
system.cpu.icache.tags.age_task_id_blocks_1024::2           27                       # Occupied blocks per task id
system.cpu.icache.tags.age_task_id_blocks_1024::3            5                       # Occupied blocks per task id
system.cpu.icache.tags.occ_task_id_percent::1024            1                       # Percentage of cache occupancy per task id
system.cpu.icache.tags.tag_accesses            491061                       # Number of tag accesses
system.cpu.icache.tags.data_accesses           491061                       # Number of data accesses
system.cpu.dtb.walker.pwrStateResidencyTicks::UNDEFINED   1090712400                       # Cumulative time (in ticks) in various power states
system.cpu.interrupts.clk_domain.clock           6400                       # Clock period in ticks
system.cpu.itb.walker.pwrStateResidencyTicks::UNDEFINED   1090712400                       # Cumulative time (in ticks) in various power states
system.cpu.dcache.pwrStateResidencyTicks::UNDEFINED   1090712400                       # Cumulative time (in ticks) in various power states
system.cpu.dcache.demand_hits::.cpu.data       670911                       # number of demand (read+write) hits
system.cpu.dcache.demand_hits::total           670911                       # number of demand (read+write) hits
system.cpu.dcache.overall_hits::.cpu.data       670911                       # number of overall hits
system.cpu.dcache.overall_hits::total          670911                       # number of overall hits
system.cpu.dcache.demand_misses::.cpu.data        34803                       # number of demand (read+write) misses
system.cpu.dcache.demand_misses::total          34803                       # number of demand (read+write) misses
system.cpu.dcache.overall_misses::.cpu.data        34803                       # number of overall misses
system.cpu.dcache.overall_misses::total         34803                       # number of overall misses
system.cpu.dcache.demand_miss_latency::.cpu.data   1686833999                       # number of demand (read+write) miss cycles
system.cpu.dcache.demand_miss_latency::total   1686833999                       # number of demand (read+write) miss cycles
system.cpu.dcache.overall_miss_latency::.cpu.data   1686833999                       # number of overall miss cycles
system.cpu.dcache.overall_miss_latency::total   1686833999                       # number of overall miss cycles
system.cpu.dcache.demand_accesses::.cpu.data       705714                       # number of demand (read+write) accesses
system.cpu.dcache.demand_accesses::total       705714                       # number of demand (read+write) accesses
system.cpu.dcache.overall_accesses::.cpu.data       705714                       # number of overall (read+write) accesses
system.cpu.dcache.overall_accesses::total       705714                       # number of overall (read+write) accesses
system.cpu.dcache.demand_miss_rate::.cpu.data     0.049316                       # miss rate for demand accesses
system.cpu.dcache.demand_miss_rate::total     0.049316                       # miss rate for demand accesses
system.cpu.dcache.overall_miss_rate::.cpu.data     0.049316                       # miss rate for overall accesses
system.cpu.dcache.overall_miss_rate::total     0.049316                       # miss rate for overall accesses
system.cpu.dcache.demand_avg_miss_latency::.cpu.data 48468.063069                       # average overall miss latency
system.cpu.dcache.demand_avg_miss_latency::total 48468.063069                       # average overall miss latency
system.cpu.dcache.overall_avg_miss_latency::.cpu.data 48468.063069                       # average overall miss latency
system.cpu.dcache.overall_avg_miss_latency::total 48468.063069                       # average overall miss latency
system.cpu.dcache.blocked_cycles::no_mshrs        27495                       # number of cycles access was blocked
system.cpu.dcache.blocked_cycles::no_targets          138                       # number of cycles access was blocked
system.cpu.dcache.blocked::no_mshrs               742                       # number of cycles access was blocked
system.cpu.dcache.blocked::no_targets               1                       # number of cycles access was blocked
system.cpu.dcache.avg_blocked_cycles::no_mshrs    37.055256                       # average number of cycles each access was blocked
system.cpu.dcache.avg_blocked_cycles::no_targets          138                       # average number of cycles each access was blocked
system.cpu.dcache.unused_prefetches              1749                       # number of HardPF blocks evicted w/o reference
system.cpu.dcache.writebacks::.writebacks         2779                       # number of writebacks
system.cpu.dcache.writebacks::total              2779                       # number of writebacks
system.cpu.dcache.demand_mshr_hits::.cpu.data        22218                       # number of demand (read+write) MSHR hits
system.cpu.dcache.demand_mshr_hits::total        22218                       # number of demand (read+write) MSHR hits
system.cpu.dcache.overall_mshr_hits::.cpu.data        22218                       # number of overall MSHR hits
system.cpu.dcache.overall_mshr_hits::total        22218                       # number of overall MSHR hits
system.cpu.dcache.demand_mshr_misses::.cpu.data        12585                       # number of demand (read+write) MSHR misses
system.cpu.dcache.demand_mshr_misses::total        12585                       # number of demand (read+write) MSHR misses
system.cpu.dcache.overall_mshr_misses::.cpu.data        12585                       # number of overall MSHR misses
system.cpu.dcache.overall_mshr_misses::.cpu.dcache.prefetcher         4258                       # number of overall MSHR misses
system.cpu.dcache.overall_mshr_misses::total        16843                       # number of overall MSHR misses
system.cpu.dcache.demand_mshr_miss_latency::.cpu.data    576995199                       # number of demand (read+write) MSHR miss cycles
system.cpu.dcache.demand_mshr_miss_latency::total    576995199                       # number of demand (read+write) MSHR miss cycles
system.cpu.dcache.overall_mshr_miss_latency::.cpu.data    576995199                       # number of overall MSHR miss cycles
system.cpu.dcache.overall_mshr_miss_latency::.cpu.dcache.prefetcher    242420298                       # number of overall MSHR miss cycles
system.cpu.dcache.overall_mshr_miss_latency::total    819415497                       # number of overall MSHR miss cycles
system.cpu.dcache.demand_mshr_miss_rate::.cpu.data     0.017833                       # mshr miss rate for demand accesses
system.cpu.dcache.demand_mshr_miss_rate::total     0.017833                       # mshr miss rate for demand accesses
system.cpu.dcache.overall_mshr_miss_rate::.cpu.data     0.017833                       # mshr miss rate for overall accesses
system.cpu.dcache.overall_mshr_miss_rate::.cpu.dcache.prefetcher          inf                       # mshr miss rate for overall accesses
system.cpu.dcache.overall_mshr_miss_rate::total     0.023867                       # mshr miss rate for overall accesses
system.cpu.dcache.demand_avg_mshr_miss_latency::.cpu.data 45847.850536                       # average overall mshr miss latency
system.cpu.dcache.demand_avg_mshr_miss_latency::total 45847.850536                       # average overall mshr miss latency
system.cpu.dcache.overall_avg_mshr_miss_latency::.cpu.data 45847.850536                       # average overall mshr miss latency
system.cpu.dcache.overall_avg_mshr_miss_latency::.cpu.dcache.prefetcher 56932.902302                       # average overall mshr miss latency
system.cpu.dcache.overall_avg_mshr_miss_latency::total 48650.210592                       # average overall mshr miss latency
system.cpu.dcache.replacements                  15819                       # number of replacements
system.cpu.dcache.ReadReq_hits::.cpu.data       501285                       # number of ReadReq hits
system.cpu.dcache.ReadReq_hits::total          501285                       # number of ReadReq hits
system.cpu.dcache.ReadReq_misses::.cpu.data        32677                       # number of ReadReq misses
system.cpu.dcache.ReadReq_misses::total         32677                       # number of ReadReq misses
system.cpu.dcache.ReadReq_miss_latency::.cpu.data   1581214000                       # number of ReadReq miss cycles
system.cpu.dcache.ReadReq_miss_latency::total   1581214000                       # number of ReadReq miss cycles
system.cpu.dcache.ReadReq_accesses::.cpu.data       533962                       # number of ReadReq accesses(hits+misses)
system.cpu.dcache.ReadReq_accesses::total       533962                       # number of ReadReq accesses(hits+misses)
system.cpu.dcache.ReadReq_miss_rate::.cpu.data     0.061197                       # miss rate for ReadReq accesses
system.cpu.dcache.ReadReq_miss_rate::total     0.061197                       # miss rate for ReadReq accesses
system.cpu.dcache.ReadReq_avg_miss_latency::.cpu.data 48389.203415                       # average ReadReq miss latency
system.cpu.dcache.ReadReq_avg_miss_latency::total 48389.203415                       # average ReadReq miss latency
system.cpu.dcache.ReadReq_mshr_hits::.cpu.data        22182                       # number of ReadReq MSHR hits
system.cpu.dcache.ReadReq_mshr_hits::total        22182                       # number of ReadReq MSHR hits
system.cpu.dcache.ReadReq_mshr_misses::.cpu.data        10495                       # number of ReadReq MSHR misses
system.cpu.dcache.ReadReq_mshr_misses::total        10495                       # number of ReadReq MSHR misses
system.cpu.dcache.ReadReq_mshr_miss_latency::.cpu.data    474428000                       # number of ReadReq MSHR miss cycles
system.cpu.dcache.ReadReq_mshr_miss_latency::total    474428000                       # number of ReadReq MSHR miss cycles
system.cpu.dcache.ReadReq_mshr_miss_rate::.cpu.data     0.019655                       # mshr miss rate for ReadReq accesses
system.cpu.dcache.ReadReq_mshr_miss_rate::total     0.019655                       # mshr miss rate for ReadReq accesses
system.cpu.dcache.ReadReq_avg_mshr_miss_latency::.cpu.data 45205.145307                       # average ReadReq mshr miss latency
system.cpu.dcache.ReadReq_avg_mshr_miss_latency::total 45205.145307                       # average ReadReq mshr miss latency
system.cpu.dcache.WriteReq_hits::.cpu.data       169626                       # number of WriteReq hits
system.cpu.dcache.WriteReq_hits::total         169626                       # number of WriteReq hits
system.cpu.dcache.WriteReq_misses::.cpu.data         2126                       # number of WriteReq misses
system.cpu.dcache.WriteReq_misses::total         2126                       # number of WriteReq misses
system.cpu.dcache.WriteReq_miss_latency::.cpu.data    105619999                       # number of WriteReq miss cycles
system.cpu.dcache.WriteReq_miss_latency::total    105619999                       # number of WriteReq miss cycles
system.cpu.dcache.WriteReq_accesses::.cpu.data       171752                       # number of WriteReq accesses(hits+misses)
system.cpu.dcache.WriteReq_accesses::total       171752                       # number of WriteReq accesses(hits+misses)
system.cpu.dcache.WriteReq_miss_rate::.cpu.data     0.012378                       # miss rate for WriteReq accesses
system.cpu.dcache.WriteReq_miss_rate::total     0.012378                       # miss rate for WriteReq accesses
system.cpu.dcache.WriteReq_avg_miss_latency::.cpu.data 49680.150047                       # average WriteReq miss latency
system.cpu.dcache.WriteReq_avg_miss_latency::total 49680.150047                       # average WriteReq miss latency
system.cpu.dcache.WriteReq_mshr_hits::.cpu.data           36                       # number of WriteReq MSHR hits
system.cpu.dcache.WriteReq_mshr_hits::total           36                       # number of WriteReq MSHR hits
system.cpu.dcache.WriteReq_mshr_misses::.cpu.data         2090                       # number of WriteReq MSHR misses
system.cpu.dcache.WriteReq_mshr_misses::total         2090                       # number of WriteReq MSHR misses
system.cpu.dcache.WriteReq_mshr_miss_latency::.cpu.data    102567199                       # number of WriteReq MSHR miss cycles
[...]
system.l2cache.overall_mshr_misses::.cpu.dcache.prefetcher           47                       # number of overall MSHR misses
system.l2cache.overall_mshr_misses::total          670                       # number of overall MSHR misses
system.l2cache.demand_mshr_miss_latency::.cpu.inst     23830400                       # number of demand (read+write) MSHR miss cycles
system.l2cache.demand_mshr_miss_latency::.cpu.data     13254000                       # number of demand (read+write) MSHR miss cycles
system.l2cache.demand_mshr_miss_latency::.cpu.dcache.prefetcher      2995149                       # number of demand (read+write) MSHR miss cycles
system.l2cache.demand_mshr_miss_latency::total     40079549                       # number of demand (read+write) MSHR miss cycles
system.l2cache.overall_mshr_miss_latency::.cpu.inst     23830400                       # number of overall MSHR miss cycles
system.l2cache.overall_mshr_miss_latency::.cpu.data     13254000                       # number of overall MSHR miss cycles
system.l2cache.overall_mshr_miss_latency::.cpu.dcache.prefetcher      2995149                       # number of overall MSHR miss cycles
system.l2cache.overall_mshr_miss_latency::total     40079549                       # number of overall MSHR miss cycles
system.l2cache.demand_mshr_miss_rate::.cpu.inst     0.135893                       # mshr miss rate for demand accesses
system.l2cache.demand_mshr_miss_rate::.cpu.data     0.552430                       # mshr miss rate for demand accesses
system.l2cache.demand_mshr_miss_rate::.cpu.dcache.prefetcher     0.854545                       # mshr miss rate for demand accesses
system.l2cache.demand_mshr_miss_rate::total     0.194711                       # mshr miss rate for demand accesses
system.l2cache.overall_mshr_miss_rate::.cpu.inst     0.135893                       # mshr miss rate for overall accesses
system.l2cache.overall_mshr_miss_rate::.cpu.data     0.552430                       # mshr miss rate for overall accesses
system.l2cache.overall_mshr_miss_rate::.cpu.dcache.prefetcher     0.854545                       # mshr miss rate for overall accesses
system.l2cache.overall_mshr_miss_rate::total     0.194711                       # mshr miss rate for overall accesses
system.l2cache.demand_avg_mshr_miss_latency::.cpu.inst 58551.351351                       # average overall mshr miss latency
system.l2cache.demand_avg_mshr_miss_latency::.cpu.data 61361.111111                       # average overall mshr miss latency
system.l2cache.demand_avg_mshr_miss_latency::.cpu.dcache.prefetcher 63726.574468                       # average overall mshr miss latency
system.l2cache.demand_avg_mshr_miss_latency::total 59820.222388                       # average overall mshr miss latency
system.l2cache.overall_avg_mshr_miss_latency::.cpu.inst 58551.351351                       # average overall mshr miss latency
system.l2cache.overall_avg_mshr_miss_latency::.cpu.data 61361.111111                       # average overall mshr miss latency
system.l2cache.overall_avg_mshr_miss_latency::.cpu.dcache.prefetcher 63726.574468                       # average overall mshr miss latency
system.l2cache.overall_avg_mshr_miss_latency::total 59820.222388                       # average overall mshr miss latency
system.l2cache.replacements                       681                       # number of replacements
system.l2cache.WritebackDirty_hits::.writebacks          146                       # number of WritebackDirty hits
system.l2cache.WritebackDirty_hits::total          146                       # number of WritebackDirty hits
system.l2cache.WritebackDirty_accesses::.writebacks          146                       # number of WritebackDirty accesses(hits+misses)
system.l2cache.WritebackDirty_accesses::total          146                       # number of WritebackDirty accesses(hits+misses)
system.l2cache.CleanEvict_mshr_misses::.writebacks           22                       # number of CleanEvict MSHR misses
system.l2cache.CleanEvict_mshr_misses::total           22                       # number of CleanEvict MSHR misses
system.l2cache.CleanEvict_mshr_miss_rate::.writebacks          inf                       # mshr miss rate for CleanEvict accesses
system.l2cache.CleanEvict_mshr_miss_rate::total          inf                       # mshr miss rate for CleanEvict accesses
system.l2cache.UpgradeReq_hits::.cpu.data            1                       # number of UpgradeReq hits
system.l2cache.UpgradeReq_hits::total               1                       # number of UpgradeReq hits
system.l2cache.UpgradeReq_accesses::.cpu.data            1                       # number of UpgradeReq accesses(hits+misses)
system.l2cache.UpgradeReq_accesses::total            1                       # number of UpgradeReq accesses(hits+misses)
system.l2cache.ReadExReq_hits::.cpu.data           10                       # number of ReadExReq hits
system.l2cache.ReadExReq_hits::total               10                       # number of ReadExReq hits
system.l2cache.ReadExReq_misses::.cpu.data           54                       # number of ReadExReq misses
system.l2cache.ReadExReq_misses::total             54                       # number of ReadExReq misses
system.l2cache.ReadExReq_miss_latency::.cpu.data      3760800                       # number of ReadExReq miss cycles
system.l2cache.ReadExReq_miss_latency::total      3760800                       # number of ReadExReq miss cycles
system.l2cache.ReadExReq_accesses::.cpu.data           64                       # number of ReadExReq accesses(hits+misses)
system.l2cache.ReadExReq_accesses::total           64                       # number of ReadExReq accesses(hits+misses)
system.l2cache.ReadExReq_miss_rate::.cpu.data     0.843750                       # miss rate for ReadExReq accesses
system.l2cache.ReadExReq_miss_rate::total     0.843750                       # miss rate for ReadExReq accesses
system.l2cache.ReadExReq_avg_miss_latency::.cpu.data 69644.444444                       # average ReadExReq miss latency
system.l2cache.ReadExReq_avg_miss_latency::total 69644.444444                       # average ReadExReq miss latency
system.l2cache.ReadExReq_mshr_misses::.cpu.data           54                       # number of ReadExReq MSHR misses
system.l2cache.ReadExReq_mshr_misses::total           54                       # number of ReadExReq MSHR misses
system.l2cache.ReadExReq_mshr_miss_latency::.cpu.data      3328800                       # number of ReadExReq MSHR miss cycles
system.l2cache.ReadExReq_mshr_miss_latency::total      3328800                       # number of ReadExReq MSHR miss cycles
system.l2cache.ReadExReq_mshr_miss_rate::.cpu.data     0.843750                       # mshr miss rate for ReadExReq accesses
system.l2cache.ReadExReq_mshr_miss_rate::total     0.843750                       # mshr miss rate for ReadExReq accesses
system.l2cache.ReadExReq_avg_mshr_miss_latency::.cpu.data 61644.444444                       # average ReadExReq mshr miss latency
system.l2cache.ReadExReq_avg_mshr_miss_latency::total 61644.444444                       # average ReadExReq mshr miss latency
system.l2cache.ReadSharedReq_hits::.cpu.inst         2588                       # number of ReadSharedReq hits
system.l2cache.ReadSharedReq_hits::.cpu.data          164                       # number of ReadSharedReq hits
system.l2cache.ReadSharedReq_hits::.cpu.dcache.prefetcher            8                       # number of ReadSharedReq hits
system.l2cache.ReadSharedReq_hits::total         2760                       # number of ReadSharedReq hits
system.l2cache.ReadSharedReq_misses::.cpu.inst          407                       # number of ReadSharedReq misses
system.l2cache.ReadSharedReq_misses::.cpu.data          163                       # number of ReadSharedReq misses
system.l2cache.ReadSharedReq_misses::.cpu.dcache.prefetcher           47                       # number of ReadSharedReq misses
system.l2cache.ReadSharedReq_misses::total          617                       # number of ReadSharedReq misses
system.l2cache.ReadSharedReq_miss_latency::.cpu.inst     27078400                       # number of ReadSharedReq miss cycles
system.l2cache.ReadSharedReq_miss_latency::.cpu.data     11277600                       # number of ReadSharedReq miss cycles
system.l2cache.ReadSharedReq_miss_latency::.cpu.dcache.prefetcher      3371149                       # number of ReadSharedReq miss cycles
system.l2cache.ReadSharedReq_miss_latency::total     41727149                       # number of ReadSharedReq miss cycles
system.l2cache.ReadSharedReq_accesses::.cpu.inst         2995                       # number of ReadSharedReq accesses(hits+misses)
system.l2cache.ReadSharedReq_accesses::.cpu.data          327                       # number of ReadSharedReq accesses(hits+misses)
system.l2cache.ReadSharedReq_accesses::.cpu.dcache.prefetcher           55                       # number of ReadSharedReq accesses(hits+misses)
system.l2cache.ReadSharedReq_accesses::total         3377                       # number of ReadSharedReq accesses(hits+misses)
system.l2cache.ReadSharedReq_miss_rate::.cpu.inst     0.135893                       # miss rate for ReadSharedReq accesses
system.l2cache.ReadSharedReq_miss_rate::.cpu.data     0.498471                       # miss rate for ReadSharedReq accesses
system.l2cache.ReadSharedReq_miss_rate::.cpu.dcache.prefetcher     0.854545                       # miss rate for ReadSharedReq accesses
system.l2cache.ReadSharedReq_miss_rate::total     0.182707                       # miss rate for ReadSharedReq accesses
system.l2cache.ReadSharedReq_avg_miss_latency::.cpu.inst 66531.695332                       # average ReadSharedReq miss latency
system.l2cache.ReadSharedReq_avg_miss_latency::.cpu.data 69187.730061                       # average ReadSharedReq miss latency
system.l2cache.ReadSharedReq_avg_miss_latency::.cpu.dcache.prefetcher 71726.574468                       # average ReadSharedReq miss latency
system.l2cache.ReadSharedReq_avg_miss_latency::total 67629.090762                       # average ReadSharedReq miss latency
system.l2cache.ReadSharedReq_mshr_hits::.cpu.data            1                       # number of ReadSharedReq MSHR hits
system.l2cache.ReadSharedReq_mshr_hits::total            1                       # number of ReadSharedReq MSHR hits
system.l2cache.ReadSharedReq_mshr_misses::.cpu.inst          407                       # number of ReadSharedReq MSHR misses
system.l2cache.ReadSharedReq_mshr_misses::.cpu.data          162                       # number of ReadSharedReq MSHR misses
system.l2cache.ReadSharedReq_mshr_misses::.cpu.dcache.prefetcher           47                       # number of ReadSharedReq MSHR misses
system.l2cache.ReadSharedReq_mshr_misses::total          616                       # number of ReadSharedReq MSHR misses
system.l2cache.ReadSharedReq_mshr_miss_latency::.cpu.inst     23830400                       # number of ReadSharedReq MSHR miss cycles
system.l2cache.ReadSharedReq_mshr_miss_latency::.cpu.data      9925200                       # number of ReadSharedReq MSHR miss cycles
system.l2cache.ReadSharedReq_mshr_miss_latency::.cpu.dcache.prefetcher      2995149                       # number of ReadSharedReq MSHR miss cycles
system.l2cache.ReadSharedReq_mshr_miss_latency::total     36750749                       # number of ReadSharedReq MSHR miss cycles
system.l2cache.ReadSharedReq_mshr_miss_rate::.cpu.inst     0.135893                       # mshr miss rate for ReadSharedReq accesses
system.l2cache.ReadSharedReq_mshr_miss_rate::.cpu.data     0.495413                       # mshr miss rate for ReadSharedReq accesses
system.l2cache.ReadSharedReq_mshr_miss_rate::.cpu.dcache.prefetcher     0.854545                       # mshr miss rate for ReadSharedReq accesses
system.l2cache.ReadSharedReq_mshr_miss_rate::total     0.182410                       # mshr miss rate for ReadSharedReq accesses
system.l2cache.ReadSharedReq_avg_mshr_miss_latency::.cpu.inst 58551.351351                       # average ReadSharedReq mshr miss latency
system.l2cache.ReadSharedReq_avg_mshr_miss_latency::.cpu.data 61266.666667                       # average ReadSharedReq mshr miss latency
system.l2cache.ReadSharedReq_avg_mshr_miss_latency::.cpu.dcache.prefetcher 63726.574468                       # average ReadSharedReq mshr miss latency
system.l2cache.ReadSharedReq_avg_mshr_miss_latency::total 59660.306818                       # average ReadSharedReq mshr miss latency
system.l2cache.prefetcher.pwrStateResidencyTicks::UNDEFINED    226400400                       # Cumulative time (in ticks) in various power states
system.l2cache.tags.pwrStateResidencyTicks::UNDEFINED    226400400                       # Cumulative time (in ticks) in various power states
system.l2cache.tags.tagsinuse                    4096                       # Cycle average of tags in use
system.l2cache.tags.total_refs                  19400                       # Total number of references to valid blocks.
system.l2cache.tags.sampled_refs                 4777                       # Sample count of references to valid blocks.
system.l2cache.tags.avg_refs                 4.061126                       # Average number of references to valid blocks.
system.l2cache.tags.warmup_cycle                    0                       # Cycle when the warmup percentage was hit.
system.l2cache.tags.occ_blocks::.writebacks    38.208766                       # Average occupied blocks per requestor
system.l2cache.tags.occ_blocks::.cpu.inst  1114.173283                       # Average occupied blocks per requestor
system.l2cache.tags.occ_blocks::.cpu.data  1854.151077                       # Average occupied blocks per requestor
system.l2cache.tags.occ_blocks::.cpu.dcache.prefetcher   910.964116                       # Average occupied blocks per requestor
system.l2cache.tags.occ_blocks::.l2cache.prefetcher   178.502757                       # Average occupied blocks per requestor
system.l2cache.tags.occ_percent::.writebacks     0.009328                       # Average percentage of cache occupancy
system.l2cache.tags.occ_percent::.cpu.inst     0.272015                       # Average percentage of cache occupancy
system.l2cache.tags.occ_percent::.cpu.data     0.452674                       # Average percentage of cache occupancy
system.l2cache.tags.occ_percent::.cpu.dcache.prefetcher     0.222403                       # Average percentage of cache occupancy
system.l2cache.tags.occ_percent::.l2cache.prefetcher     0.043580                       # Average percentage of cache occupancy
system.l2cache.tags.occ_percent::total              1                       # Average percentage of cache occupancy
system.l2cache.tags.occ_task_id_blocks::1022         1012                       # Occupied blocks per task id
system.l2cache.tags.occ_task_id_blocks::1024         3084                       # Occupied blocks per task id
system.l2cache.tags.age_task_id_blocks_1022::0            9                       # Occupied blocks per task id
system.l2cache.tags.age_task_id_blocks_1022::1            6                       # Occupied blocks per task id
system.l2cache.tags.age_task_id_blocks_1022::2          965                       # Occupied blocks per task id
system.l2cache.tags.age_task_id_blocks_1022::3           32                       # Occupied blocks per task id
system.l2cache.tags.age_task_id_blocks_1024::0          175                       # Occupied blocks per task id
system.l2cache.tags.age_task_id_blocks_1024::1           62                       # Occupied blocks per task id
system.l2cache.tags.age_task_id_blocks_1024::2         2666                       # Occupied blocks per task id
system.l2cache.tags.age_task_id_blocks_1024::3          181                       # Occupied blocks per task id
system.l2cache.tags.occ_task_id_percent::1022     0.247070                       # Percentage of cache occupancy per task id
system.l2cache.tags.occ_task_id_percent::1024     0.752930                       # Percentage of cache occupancy per task id
system.l2cache.tags.tag_accesses                55705                       # Number of tag accesses
system.l2cache.tags.data_accesses               55705                       # Number of data accesses
system.mem_ctrl.pwrStateResidencyTicks::UNDEFINED    226400400                       # Cumulative time (in ticks) in various power states
system.mem_ctrl.bytes_read::.cpu.inst           25984                       # Number of bytes read from this memory
system.mem_ctrl.bytes_read::.cpu.data           13824                       # Number of bytes read from this memory
system.mem_ctrl.bytes_read::.cpu.dcache.prefetcher         3008                       # Number of bytes read from this memory
system.mem_ctrl.bytes_read::total               42816                       # Number of bytes read from this memory
system.mem_ctrl.bytes_inst_read::.cpu.inst        25984                       # Number of instructions bytes read from this memory
system.mem_ctrl.bytes_inst_read::total          25984                       # Number of instructions bytes read from this memory
system.mem_ctrl.bytes_written::.writebacks         2624                       # Number of bytes written to this memory
system.mem_ctrl.bytes_written::total             2624                       # Number of bytes written to this memory
system.mem_ctrl.num_reads::.cpu.inst              406                       # Number of read requests responded to by this memory
system.mem_ctrl.num_reads::.cpu.data              216                       # Number of read requests responded to by this memory
system.mem_ctrl.num_reads::.cpu.dcache.prefetcher           47                       # Number of read requests responded to by this memory
system.mem_ctrl.num_reads::total                  669                       # Number of read requests responded to by this memory
system.mem_ctrl.num_writes::.writebacks            41                       # Number of write requests responded to by this memory
system.mem_ctrl.num_writes::total                  41                       # Number of write requests responded to by this memory
system.mem_ctrl.bw_read::.cpu.inst          114770115                       # Total read bandwidth from this memory (bytes/s)
system.mem_ctrl.bw_read::.cpu.data           61059963                       # Total read bandwidth from this memory (bytes/s)
system.mem_ctrl.bw_read::.cpu.dcache.prefetcher     13286196                       # Total read bandwidth from this memory (bytes/s)
system.mem_ctrl.bw_read::total              189116274                       # Total read bandwidth from this memory (bytes/s)
system.mem_ctrl.bw_inst_read::.cpu.inst     114770115                       # Instruction read bandwidth from this memory (bytes/s)
system.mem_ctrl.bw_inst_read::total         114770115                       # Instruction read bandwidth from this memory (bytes/s)
system.mem_ctrl.bw_write::.writebacks        11590086                       # Write bandwidth from this memory (bytes/s)
system.mem_ctrl.bw_write::total              11590086                       # Write bandwidth from this memory (bytes/s)
system.mem_ctrl.bw_total::.writebacks        11590086                       # Total bandwidth to/from this memory (bytes/s)
system.mem_ctrl.bw_total::.cpu.inst         114770115                       # Total bandwidth to/from this memory (bytes/s)
system.mem_ctrl.bw_total::.cpu.data          61059963                       # Total bandwidth to/from this memory (bytes/s)
system.mem_ctrl.bw_total::.cpu.dcache.prefetcher     13286196                       # Total bandwidth to/from this memory (bytes/s)
system.mem_ctrl.bw_total::total             200706359                       # Total bandwidth to/from this memory (bytes/s)

---------- End Simulation Statistics   ----------
