
---------- Begin Simulation Statistics ----------
final_tick                                 1073111200                       # Number of ticks from beginning of simulation (restored from checkpoints and never reset)
host_inst_rate                                 170911                       # Simulator instruction rate (inst/s)
host_mem_usage                                4402740                       # Number of bytes of host memory used
host_op_rate                                   297059                       # Simulator op (including micro ops) rate (op/s)
host_seconds                                    11.91                       # Real time elapsed on the host
host_tick_rate                               90099070                       # Simulator tick rate (ticks/s)
sim_freq                                 1000000000000                       # Frequency of simulated ticks
sim_insts                                     2035589                       # Number of instructions simulated
sim_ops                                       3538075                       # Number of ops (including micro ops) simulated
sim_seconds                                  0.001073                       # Number of seconds simulated
sim_ticks                                  1073111200                       # Number of ticks simulated
system.cpu.branchPred.BTBCorrect                    0                       # Number of correct BTB predictions (this stat may not work properly.
system.cpu.branchPred.BTBHitPct              0.000000                       # BTB Hit Percentage
system.cpu.branchPred.BTBHits                       0                       # Number of BTB hits
system.cpu.branchPred.BTBLookups               431940                       # Number of BTB lookups
system.cpu.branchPred.RASInCorrect                  7                       # Number of incorrect RAS predictions.
system.cpu.branchPred.condIncorrect             23599                       # Number of conditional branches incorrect
system.cpu.branchPred.condPredicted            457135                       # Number of conditional branches predicted
system.cpu.branchPred.indirectHits             236674                       # Number of indirect target hits.
system.cpu.branchPred.indirectLookups          431940                       # Number of indirect predictor lookups.
system.cpu.branchPred.indirectMisses           195266                       # Number of indirect misses.
system.cpu.branchPred.lookups                  482127                       # Number of BP lookups
system.cpu.branchPred.usedRAS                   10794                       # Number of times the RAS was used to get a target.
system.cpu.branchPredindirectMispredicted        11521                       # Number of mispredicted indirect branches.
system.cpu.cc_regfile_reads                   2336628                       # number of cc regfile reads
system.cpu.cc_regfile_writes                  1908989                       # number of cc regfile writes
system.cpu.commit.amos                              0                       # Number of atomic instructions committed
system.cpu.commit.branchMispredicts             23679                       # The number of times a branch was mispredicted
system.cpu.commit.branches                     340491                       # Number of branches committed
system.cpu.commit.bw_lim_events                588843                       # number cycles where commit BW limit reached
system.cpu.commit.commitNonSpecStalls             732                       # The number of times commit has been forced to stall to communicate backwards
system.cpu.commit.commitSquashedInsts          870960                       # The number of squashed insts skipped by commit
system.cpu.commit.committedInsts              2035589                       # Number of instructions committed
system.cpu.commit.committedOps                3538075                       # Number of ops (including micro ops) committed
system.cpu.commit.committed_per_cycle::samples      2297770                       # Number of insts commited each cycle
system.cpu.commit.committed_per_cycle::mean     1.539786                       # Number of insts commited each cycle
system.cpu.commit.committed_per_cycle::stdev     1.726022                       # Number of insts commited each cycle
system.cpu.commit.committed_per_cycle::underflows            0      0.00%      0.00% # Number of insts commited each cycle
system.cpu.commit.committed_per_cycle::0      1144623     49.81%     49.81% # Number of insts commited each cycle
system.cpu.commit.committed_per_cycle::1       172053      7.49%     57.30% # Number of insts commited each cycle
system.cpu.commit.committed_per_cycle::2       166103      7.23%     64.53% # Number of insts commited each cycle
system.cpu.commit.committed_per_cycle::3       226148      9.84%     74.37% # Number of insts commited each cycle
system.cpu.commit.committed_per_cycle::4       588843     25.63%    100.00% # Number of insts commited each cycle
system.cpu.commit.committed_per_cycle::overflows            0      0.00%    100.00% # Number of insts commited each cycle
system.cpu.commit.committed_per_cycle::min_value            0                       # Number of insts commited each cycle
system.cpu.commit.committed_per_cycle::max_value            4                       # Number of insts commited each cycle
system.cpu.commit.committed_per_cycle::total      2297770                       # Number of insts commited each cycle
system.cpu.commit.fp_insts                      73149                       # Number of committed floating point instructions.
system.cpu.commit.function_calls                 9079                       # Number of function calls committed.
system.cpu.commit.int_insts                   3483462                       # Number of committed integer instructions.
system.cpu.commit.loads                        485146                       # Number of loads committed
system.cpu.commit.membars                           1                       # Number of memory barriers committed
system.cpu.commit.op_class_0::No_OpClass        20374      0.58%      0.58% # Class of committed instruction
system.cpu.commit.op_class_0::IntAlu          2783660     78.68%     79.25% # Class of committed instruction
system.cpu.commit.op_class_0::IntMult            1275      0.04%     79.29% # Class of committed instruction
system.cpu.commit.op_class_0::IntDiv            38043      1.08%     80.36% # Class of committed instruction
system.cpu.commit.op_class_0::FloatAdd           2859      0.08%     80.45% # Class of committed instruction
system.cpu.commit.op_class_0::FloatCmp              0      0.00%     80.45% # Class of committed instruction
system.cpu.commit.op_class_0::FloatCvt           1200      0.03%     80.48% # Class of committed instruction
system.cpu.commit.op_class_0::FloatMult             0      0.00%     80.48% # Class of committed instruction
system.cpu.commit.op_class_0::FloatMultAcc            0      0.00%     80.48% # Class of committed instruction
system.cpu.commit.op_class_0::FloatDiv              0      0.00%     80.48% # Class of committed instruction
system.cpu.commit.op_class_0::FloatMisc             0      0.00%     80.48% # Class of committed instruction
system.cpu.commit.op_class_0::FloatSqrt             0      0.00%     80.48% # Class of committed instruction
system.cpu.commit.op_class_0::SimdAdd            6206      0.18%     80.65% # Class of committed instruction
system.cpu.commit.op_class_0::SimdAddAcc            0      0.00%     80.65% # Class of committed instruction
system.cpu.commit.op_class_0::SimdAlu           11173      0.32%     80.97% # Class of committed instruction
system.cpu.commit.op_class_0::SimdCmp               0      0.00%     80.97% # Class of committed instruction
system.cpu.commit.op_class_0::SimdCvt           12094      0.34%     81.31% # Class of committed instruction
system.cpu.commit.op_class_0::SimdMisc           6501      0.18%     81.50% # Class of committed instruction
system.cpu.commit.op_class_0::SimdMult              0      0.00%     81.50% # Class of committed instruction
system.cpu.commit.op_class_0::SimdMultAcc            0      0.00%     81.50% # Class of committed instruction
system.cpu.commit.op_class_0::SimdShift          1124      0.03%     81.53% # Class of committed instruction
system.cpu.commit.op_class_0::SimdShiftAcc            0      0.00%     81.53% # Class of committed instruction
system.cpu.commit.op_class_0::SimdDiv               0      0.00%     81.53% # Class of committed instruction
system.cpu.commit.op_class_0::SimdSqrt              0      0.00%     81.53% # Class of committed instruction
system.cpu.commit.op_class_0::SimdFloatAdd            0      0.00%     81.53% # Class of committed instruction
system.cpu.commit.op_class_0::SimdFloatAlu            0      0.00%     81.53% # Class of committed instruction
system.cpu.commit.op_class_0::SimdFloatCmp            0      0.00%     81.53% # Class of committed instruction
system.cpu.commit.op_class_0::SimdFloatCvt            0      0.00%     81.53% # Class of committed instruction
system.cpu.commit.op_class_0::SimdFloatDiv            0      0.00%     81.53% # Class of committed instruction
system.cpu.commit.op_class_0::SimdFloatMisc            0      0.00%     81.53% # Class of committed instruction
system.cpu.commit.op_class_0::SimdFloatMult            0      0.00%     81.53% # Class of committed instruction
system.cpu.commit.op_class_0::SimdFloatMultAcc            0      0.00%     81.53% # Class of committed instruction
system.cpu.commit.op_class_0::SimdFloatSqrt            0      0.00%     81.53% # Class of committed instruction
system.cpu.commit.op_class_0::SimdReduceAdd            0      0.00%     81.53% # Class of committed instruction
system.cpu.commit.op_class_0::SimdReduceAlu            0      0.00%     81.53% # Class of committed instruction
system.cpu.commit.op_class_0::SimdReduceCmp            0      0.00%     81.53% # Class of committed instruction
system.cpu.commit.op_class_0::SimdFloatReduceAdd            0      0.00%     81.53% # Class of committed instruction
system.cpu.commit.op_class_0::SimdFloatReduceCmp            0      0.00%     81.53% # Class of committed instruction
system.cpu.commit.op_class_0::SimdAes               0      0.00%     81.53% # Class of committed instruction
system.cpu.commit.op_class_0::SimdAesMix            0      0.00%     81.53% # Class of committed instruction
system.cpu.commit.op_class_0::SimdSha1Hash            0      0.00%     81.53% # Class of committed instruction
system.cpu.commit.op_class_0::SimdSha1Hash2            0      0.00%     81.53% # Class of committed instruction
system.cpu.commit.op_class_0::SimdSha256Hash            0      0.00%     81.53% # Class of committed instruction
system.cpu.commit.op_class_0::SimdSha256Hash2            0      0.00%     81.53% # Class of committed instruction
system.cpu.commit.op_class_0::SimdShaSigma2            0      0.00%     81.53% # Class of committed instruction
system.cpu.commit.op_class_0::SimdShaSigma3            0      0.00%     81.53% # Class of committed instruction
system.cpu.commit.op_class_0::SimdPredAlu            0      0.00%     81.53% # Class of committed instruction
system.cpu.commit.op_class_0::MemRead          466044     13.17%     94.70% # Class of committed instruction
system.cpu.commit.op_class_0::MemWrite         156347      4.42%     99.12% # Class of committed instruction
system.cpu.commit.op_class_0::FloatMemRead        19102      0.54%     99.66% # Class of committed instruction
system.cpu.commit.op_class_0::FloatMemWrite        12073      0.34%    100.00% # Class of committed instruction
system.cpu.commit.op_class_0::IprAccess             0      0.00%    100.00% # Class of committed instruction
system.cpu.commit.op_class_0::InstPrefetch            0      0.00%    100.00% # Class of committed instruction
system.cpu.commit.op_class_0::total           3538075                       # Class of committed instruction
system.cpu.commit.refs                         653566                       # Number of memory references committed
system.cpu.commit.swp_count                         0                       # Number of s/w prefetches committed
system.cpu.commit.vec_insts                         0                       # Number of committed Vector instructions.
system.cpu.committedInsts                     2035589                       # Number of Instructions Simulated
system.cpu.committedOps                       3538075                       # Number of Ops (including micro ops) Simulated
system.cpu.cpi                               1.317937                       # CPI: Cycles Per Instruction
system.cpu.cpi_total                         1.317937                       # CPI: Total CPI of All Threads
system.cpu.dcache.prefetcher.num_hwpf_issued         7894                       # number of hwpf issued
system.cpu.dcache.prefetcher.pfBufferHit        34470                       # number of redundant prefetches already in prefetch queue
system.cpu.dcache.prefetcher.pfIdentified        49771                       # number of prefetch candidates identified
system.cpu.dcache.prefetcher.pfInCache              0                       # number of redundant prefetches already in cache/mshr dropped
system.cpu.dcache.prefetcher.pfRemovedFull            0                       # number of prefetches dropped due to prefetch queue size
system.cpu.dcache.prefetcher.pfSpanPage          4393                       # number of prefetches that crossed the page
system.cpu.decode.BlockedCycles               1015581                       # Number of cycles decode is blocked
system.cpu.decode.DecodedInsts                4619066                       # Number of instructions handled by decode
system.cpu.decode.IdleCycles                   287415                       # Number of cycles decode is idle
system.cpu.decode.RunCycles                   1121073                       # Number of cycles decode is running
system.cpu.decode.SquashCycles                  23736                       # Number of cycles decode is squashing
system.cpu.decode.UnblockCycles                 87565                       # Number of cycles decode is unblocking
system.cpu.dtb.rdAccesses                      567283                       # TLB accesses on read requests
system.cpu.dtb.rdMisses                          2064                       # TLB misses on read requests
system.cpu.dtb.wrAccesses                      187096                       # TLB accesses on write requests
system.cpu.dtb.wrMisses                           156                       # TLB misses on write requests
system.cpu.fetch.Branches                      482127                       # Number of branches that fetch encountered
system.cpu.fetch.CacheLines                    234509                       # Number of cache lines fetched
system.cpu.fetch.Cycles                       2190272                       # Number of cycles fetch has run and was not squashing or blocked
system.cpu.fetch.IcacheSquashes                  4454                       # Number of outstanding Icache misses that were squashed
system.cpu.fetch.Insts                        2790611                       # Number of instructions fetch has processed
system.cpu.fetch.MiscStallCycles                  104                       # Number of cycles fetch has spent waiting on interrupts, or bad addresses, or out of MSHRs
system.cpu.fetch.PendingQuiesceStallCycles            8                       # Number of stall cycles due to pending quiesce instructions
system.cpu.fetch.PendingTrapStallCycles           568                       # Number of stall cycles due to pending traps
system.cpu.fetch.SquashCycles                   47472                       # Number of cycles fetch has spent squashing
system.cpu.fetch.branchRate                  0.179712                       # Number of branch fetches per cycle
system.cpu.fetch.icacheStallCycles             320682                       # Number of cycles fetch is stalled on an Icache miss
system.cpu.fetch.predictedBranches             247468                       # Number of branches that fetch has predicted taken
system.cpu.fetch.rate                        1.040194                       # Number of inst fetches per cycle
system.cpu.fetch.rateDist::samples            2535370                       # Number of instructions fetched each cycle (Total)
system.cpu.fetch.rateDist::mean              1.928801                       # Number of instructions fetched each cycle (Total)
system.cpu.fetch.rateDist::stdev             1.931132                       # Number of instructions fetched each cycle (Total)
system.cpu.fetch.rateDist::underflows               0      0.00%      0.00% # Number of instructions fetched each cycle (Total)
system.cpu.fetch.rateDist::0                  1210697     47.75%     47.75% # Number of instructions fetched each cycle (Total)
system.cpu.fetch.rateDist::1                    72575      2.86%     50.61% # Number of instructions fetched each cycle (Total)
system.cpu.fetch.rateDist::2                    58202      2.30%     52.91% # Number of instructions fetched each cycle (Total)
system.cpu.fetch.rateDist::3                    74338      2.93%     55.84% # Number of instructions fetched each cycle (Total)
system.cpu.fetch.rateDist::4                  1119558     44.16%    100.00% # Number of instructions fetched each cycle (Total)
system.cpu.fetch.rateDist::overflows                0      0.00%    100.00% # Number of instructions fetched each cycle (Total)
system.cpu.fetch.rateDist::min_value                0                       # Number of instructions fetched each cycle (Total)
system.cpu.fetch.rateDist::max_value                4                       # Number of instructions fetched each cycle (Total)
system.cpu.fetch.rateDist::total              2535370                       # Number of instructions fetched each cycle (Total)
system.cpu.fp_regfile_reads                    119163                       # number of floating regfile reads
system.cpu.fp_regfile_writes                    65531                       # number of floating regfile writes
system.cpu.fuPool.fu_ticks_busy::IntALU(0)    213703600                       # Total ticks fu was busy
system.cpu.fuPool.fu_ticks_busy::IntALU(1)    213703600                       # Total ticks fu was busy
system.cpu.fuPool.fu_ticks_busy::IntALU(2)    213703200                       # Total ticks fu was busy
system.cpu.fuPool.fu_ticks_busy::IntALU(3)    213703200                       # Total ticks fu was busy
system.cpu.fuPool.fu_ticks_busy::IntALU(4)    213703200                       # Total ticks fu was busy
system.cpu.fuPool.fu_ticks_busy::IntALU(5)    213703200                       # Total ticks fu was busy
system.cpu.fuPool.fu_ticks_busy::IntMultDiv(0)      8660000                       # Total ticks fu was busy
system.cpu.fuPool.fu_ticks_busy::IntMultDiv(1)      8659600                       # Total ticks fu was busy
system.cpu.fuPool.fu_ticks_busy::FP_ALU(0)       568400                       # Total ticks fu was busy
system.cpu.fuPool.fu_ticks_busy::FP_ALU(1)       568000                       # Total ticks fu was busy
system.cpu.fuPool.fu_ticks_busy::FP_ALU(2)       567600                       # Total ticks fu was busy
system.cpu.fuPool.fu_ticks_busy::FP_ALU(3)       567600                       # Total ticks fu was busy
system.cpu.fuPool.fu_ticks_busy::FP_MultDiv(0)            0                       # Total ticks fu was busy
system.cpu.fuPool.fu_ticks_busy::FP_MultDiv(1)            0                       # Total ticks fu was busy
system.cpu.fuPool.fu_ticks_busy::SIMD_Unit(0)      4471600                       # Total ticks fu was busy
system.cpu.fuPool.fu_ticks_busy::SIMD_Unit(1)      4488400                       # Total ticks fu was busy
system.cpu.fuPool.fu_ticks_busy::SIMD_Unit(2)      4462400                       # Total ticks fu was busy
system.cpu.fuPool.fu_ticks_busy::SIMD_Unit(3)      4440000                       # Total ticks fu was busy
system.cpu.fuPool.fu_ticks_busy::PredALU(0)            0                       # Total ticks fu was busy
system.cpu.fuPool.fu_ticks_busy::RdWrPort(0)     76894000                       # Total ticks fu was busy
system.cpu.fuPool.fu_ticks_busy::RdWrPort(1)     76878000                       # Total ticks fu was busy
system.cpu.fuPool.fu_ticks_busy::RdWrPort(2)     76860400                       # Total ticks fu was busy
system.cpu.fuPool.fu_ticks_busy::RdWrPort(3)     76858400                       # Total ticks fu was busy
system.cpu.fuPool.fu_ticks_busy::IprPort(0)            0                       # Total ticks fu was busy
system.cpu.fuPool.fu_ticks_busy::total     1627164400                       # Total ticks fu was busy
system.cpu.icache.prefetcher.num_hwpf_issued            0                       # number of hwpf issued
system.cpu.icache.prefetcher.pfBufferHit            0                       # number of redundant prefetches already in prefetch queue
system.cpu.icache.prefetcher.pfIdentified            0                       # number of prefetch candidates identified
system.cpu.icache.prefetcher.pfInCache              0                       # number of redundant prefetches already in cache/mshr dropped
system.cpu.icache.prefetcher.pfRemovedFull            0                       # number of prefetches dropped due to prefetch queue size
system.cpu.icache.prefetcher.pfSpanPage             0                       # number of prefetches that crossed the page
system.cpu.idleCycles                          147409                       # Total number of cycles that the CPU has spent unscheduled due to idling
system.cpu.iew.branchMispredicts                27973                       # Number of branch mispredicts detected at execute
system.cpu.iew.exec_branches                   370436                       # Number of branches executed
system.cpu.iew.exec_nop                             0                       # number of nop insts executed
system.cpu.iew.exec_rate                     1.513544                       # Inst execution rate
system.cpu.iew.exec_refs                       756062                       # number of memory reference insts executed
system.cpu.iew.exec_stores                     187089                       # Number of stores executed
system.cpu.iew.exec_swp                             0                       # number of swp insts executed
system.cpu.iew.iewBlockCycles                  692177                       # Number of cycles IEW is blocking
system.cpu.iew.iewDispLoadInsts                598829                       # Number of dispatched load instructions
system.cpu.iew.iewDispNonSpecInsts                922                       # Number of dispatched non-speculative instructions
system.cpu.iew.iewDispSquashedInsts               560                       # Number of squashed instructions skipped by dispatch
system.cpu.iew.iewDispStoreInsts               196975                       # Number of dispatched store instructions
system.cpu.iew.iewDispatchedInsts             4408979                       # Number of instructions dispatched to IQ
system.cpu.iew.iewExecLoadInsts                568973                       # Number of load instructions executed
system.cpu.iew.iewExecSquashedInsts             33774                       # Number of squashed instructions skipped in execute
system.cpu.iew.iewExecutedInsts               4060503                       # Number of executed instructions
system.cpu.iew.iewIQFullEvents                   3340                       # Number of times the IQ has become full, causing a stall
system.cpu.iew.iewIdleCycles                        0                       # Number of cycles IEW is idle
system.cpu.iew.iewLSQFullEvents                 10280                       # Number of times the LSQ has become full, causing a stall
system.cpu.iew.iewSquashCycles                  23736                       # Number of cycles IEW is squashing
system.cpu.iew.iewUnblockCycles                 16565                       # Number of cycles IEW is unblocking
system.cpu.iew.lsq.thread0.blockedLoads             0                       # Number of blocked loads due to partial load-store forwarding
system.cpu.iew.lsq.thread0.cacheBlocked           609                       # Number of times an access to memory failed due to the cache being blocked
system.cpu.iew.lsq.thread0.forwLoads            39548                       # Number of loads that had data forwarded from stores
system.cpu.iew.lsq.thread0.ignoredResponses          230                       # Number of memory responses ignored because the instruction is squashed
system.cpu.iew.lsq.thread0.invAddrLoads             0                       # Number of loads ignored due to an invalid address
system.cpu.iew.lsq.thread0.invAddrSwpfs             0                       # Number of software prefetches ignored due to an invalid address
system.cpu.iew.lsq.thread0.memOrderViolation           70                       # Number of memory ordering violations
system.cpu.iew.lsq.thread0.rescheduledLoads            0                       # Number of loads that were rescheduled
system.cpu.iew.lsq.thread0.squashedLoads       113681                       # Number of loads squashed
system.cpu.iew.lsq.thread0.squashedStores        28554                       # Number of stores squashed
system.cpu.iew.memOrderViolationEvents             70                       # Number of memory order violations
system.cpu.iew.predictedNotTakenIncorrect        19752                       # Number of branches that were predicted not taken incorrectly
system.cpu.iew.predictedTakenIncorrect           8221                       # Number of branches that were predicted taken incorrectly
system.cpu.iew.wb_consumers                   5705108                       # num instructions consuming a value
system.cpu.iew.wb_count                       4038984                       # cumulative count of insts written-back
system.cpu.iew.wb_fanout                     0.566071                       # average fanout of values written-back
system.cpu.iew.wb_producers                   3229496                       # num instructions producing a value
system.cpu.iew.wb_rate                       1.505522                       # insts written-back per cycle
system.cpu.iew.wb_sent                        4045811                       # cumulative count of insts sent to commit
system.cpu.int_regfile_reads                  6295472                       # number of integer regfile reads
system.cpu.int_regfile_writes                 3492955                       # number of integer regfile writes
system.cpu.ipc                               0.758761                       # IPC: Instructions Per Cycle
system.cpu.ipc_total                         0.758761                       # IPC: Total IPC of All Threads
system.cpu.iq.FU_type_0::No_OpClass             26366      0.64%      0.64% # Type of FU issued
system.cpu.iq.FU_type_0::IntAlu               3205551     78.29%     78.94% # Type of FU issued
system.cpu.iq.FU_type_0::IntMult                 1312      0.03%     78.97% # Type of FU issued
system.cpu.iq.FU_type_0::IntDiv                 41987      1.03%     79.99% # Type of FU issued
system.cpu.iq.FU_type_0::FloatAdd                4429      0.11%     80.10% # Type of FU issued
system.cpu.iq.FU_type_0::FloatCmp                   0      0.00%     80.10% # Type of FU issued
system.cpu.iq.FU_type_0::FloatCvt                1250      0.03%     80.13% # Type of FU issued
system.cpu.iq.FU_type_0::FloatMult                  0      0.00%     80.13% # Type of FU issued
system.cpu.iq.FU_type_0::FloatMultAcc               0      0.00%     80.13% # Type of FU issued
system.cpu.iq.FU_type_0::FloatDiv                   0      0.00%     80.13% # Type of FU issued
system.cpu.iq.FU_type_0::FloatMisc                  0      0.00%     80.13% # Type of FU issued
system.cpu.iq.FU_type_0::FloatSqrt                  0      0.00%     80.13% # Type of FU issued
system.cpu.iq.FU_type_0::SimdAdd                 6805      0.17%     80.30% # Type of FU issued
system.cpu.iq.FU_type_0::SimdAddAcc                 0      0.00%     80.30% # Type of FU issued
system.cpu.iq.FU_type_0::SimdAlu                14812      0.36%     80.66% # Type of FU issued
system.cpu.iq.FU_type_0::SimdCmp                    0      0.00%     80.66% # Type of FU issued
system.cpu.iq.FU_type_0::SimdCvt                13783      0.34%     81.00% # Type of FU issued
system.cpu.iq.FU_type_0::SimdMisc                7048      0.17%     81.17% # Type of FU issued
system.cpu.iq.FU_type_0::SimdMult                   0      0.00%     81.17% # Type of FU issued
system.cpu.iq.FU_type_0::SimdMultAcc                0      0.00%     81.17% # Type of FU issued
system.cpu.iq.FU_type_0::SimdShift               2208      0.05%     81.22% # Type of FU issued
system.cpu.iq.FU_type_0::SimdShiftAcc               0      0.00%     81.22% # Type of FU issued
system.cpu.iq.FU_type_0::SimdDiv                    0      0.00%     81.22% # Type of FU issued
system.cpu.iq.FU_type_0::SimdSqrt                   0      0.00%     81.22% # Type of FU issued
system.cpu.iq.FU_type_0::SimdFloatAdd               0      0.00%     81.22% # Type of FU issued
system.cpu.iq.FU_type_0::SimdFloatAlu               0      0.00%     81.22% # Type of FU issued
system.cpu.iq.FU_type_0::SimdFloatCmp               0      0.00%     81.22% # Type of FU issued
system.cpu.iq.FU_type_0::SimdFloatCvt               0      0.00%     81.22% # Type of FU issued
system.cpu.iq.FU_type_0::SimdFloatDiv               0      0.00%     81.22% # Type of FU issued
system.cpu.iq.FU_type_0::SimdFloatMisc              0      0.00%     81.22% # Type of FU issued
system.cpu.iq.FU_type_0::SimdFloatMult              0      0.00%     81.22% # Type of FU issued
system.cpu.iq.FU_type_0::SimdFloatMultAcc            0      0.00%     81.22% # Type of FU issued
system.cpu.iq.FU_type_0::SimdFloatSqrt              0      0.00%     81.22% # Type of FU issued
system.cpu.iq.FU_type_0::SimdReduceAdd              0      0.00%     81.22% # Type of FU issued
system.cpu.iq.FU_type_0::SimdReduceAlu              0      0.00%     81.22% # Type of FU issued
system.cpu.iq.FU_type_0::SimdReduceCmp              0      0.00%     81.22% # Type of FU issued
system.cpu.iq.FU_type_0::SimdFloatReduceAdd            0      0.00%     81.22% # Type of FU issued
system.cpu.iq.FU_type_0::SimdFloatReduceCmp            0      0.00%     81.22% # Type of FU issued
system.cpu.iq.FU_type_0::SimdAes                    0      0.00%     81.22% # Type of FU issued
system.cpu.iq.FU_type_0::SimdAesMix                 0      0.00%     81.22% # Type of FU issued
system.cpu.iq.FU_type_0::SimdSha1Hash               0      0.00%     81.22% # Type of FU issued
system.cpu.iq.FU_type_0::SimdSha1Hash2              0      0.00%     81.22% # Type of FU issued
system.cpu.iq.FU_type_0::SimdSha256Hash             0      0.00%     81.22% # Type of FU issued
system.cpu.iq.FU_type_0::SimdSha256Hash2            0      0.00%     81.22% # Type of FU issued
system.cpu.iq.FU_type_0::SimdShaSigma2              0      0.00%     81.22% # Type of FU issued
system.cpu.iq.FU_type_0::SimdShaSigma3              0      0.00%     81.22% # Type of FU issued
system.cpu.iq.FU_type_0::SimdPredAlu                0      0.00%     81.22% # Type of FU issued
system.cpu.iq.FU_type_0::MemRead               554324     13.54%     94.76% # Type of FU issued
system.cpu.iq.FU_type_0::MemWrite              176210      4.30%     99.07% # Type of FU issued
system.cpu.iq.FU_type_0::FloatMemRead           24842      0.61%     99.67% # Type of FU issued
system.cpu.iq.FU_type_0::FloatMemWrite          13353      0.33%    100.00% # Type of FU issued
system.cpu.iq.FU_type_0::IprAccess                  0      0.00%    100.00% # Type of FU issued
system.cpu.iq.FU_type_0::InstPrefetch               0      0.00%    100.00% # Type of FU issued
system.cpu.iq.FU_type_0::total                4094280                       # Type of FU issued
system.cpu.iq.fp_alu_accesses                   89513                       # Number of floating point alu accesses
system.cpu.iq.fp_inst_queue_reads              180320                       # Number of floating instruction queue reads
system.cpu.iq.fp_inst_queue_wakeup_accesses        86166                       # Number of floating instruction queue wakeup accesses
system.cpu.iq.fp_inst_queue_writes             130363                       # Number of floating instruction queue writes
system.cpu.iq.fu_busy_cnt                           0                       # FU busy when requested
system.cpu.iq.fu_busy_rate                          0                       # FU busy rate (busy events/executed inst)
system.cpu.iq.fu_full::No_OpClass                   0                       # attempts to use FU when none available
system.cpu.iq.fu_full::IntAlu                       0                       # attempts to use FU when none available
system.cpu.iq.fu_full::IntMult                      0                       # attempts to use FU when none available
system.cpu.iq.fu_full::IntDiv                       0                       # attempts to use FU when none available
system.cpu.iq.fu_full::FloatAdd                     0                       # attempts to use FU when none available
system.cpu.iq.fu_full::FloatCmp                     0                       # attempts to use FU when none available
system.cpu.iq.fu_full::FloatCvt                     0                       # attempts to use FU when none available
system.cpu.iq.fu_full::FloatMult                    0                       # attempts to use FU when none available
system.cpu.iq.fu_full::FloatMultAcc                 0                       # attempts to use FU when none available
system.cpu.iq.fu_full::FloatDiv                     0                       # attempts to use FU when none available
system.cpu.iq.fu_full::FloatMisc                    0                       # attempts to use FU when none available
system.cpu.iq.fu_full::FloatSqrt                    0                       # attempts to use FU when none available
system.cpu.iq.fu_full::SimdAdd                      0                       # attempts to use FU when none available
system.cpu.iq.fu_full::SimdAddAcc                   0                       # attempts to use FU when none available
system.cpu.iq.fu_full::SimdAlu                      0                       # attempts to use FU when none available
system.cpu.iq.fu_full::SimdCmp                      0                       # attempts to use FU when none available
system.cpu.iq.fu_full::SimdCvt                      0                       # attempts to use FU when none available
system.cpu.iq.fu_full::SimdMisc                     0                       # attempts to use FU when none available
system.cpu.iq.fu_full::SimdMult                     0                       # attempts to use FU when none available
system.cpu.iq.fu_full::SimdMultAcc                  0                       # attempts to use FU when none available
system.cpu.iq.fu_full::SimdShift                    0                       # attempts to use FU when none available
system.cpu.iq.fu_full::SimdShiftAcc                 0                       # attempts to use FU when none available
system.cpu.iq.fu_full::SimdDiv                      0                       # attempts to use FU when none available
system.cpu.iq.fu_full::SimdSqrt                     0                       # attempts to use FU when none available
system.cpu.iq.fu_full::SimdFloatAdd                 0                       # attempts to use FU when none available
system.cpu.iq.fu_full::SimdFloatAlu                 0                       # attempts to use FU when none available
system.cpu.iq.fu_full::SimdFloatCmp                 0                       # attempts to use FU when none available
system.cpu.iq.fu_full::SimdFloatCvt                 0                       # attempts to use FU when none available
system.cpu.iq.fu_full::SimdFloatDiv                 0                       # attempts to use FU when none available
system.cpu.iq.fu_full::SimdFloatMisc                0                       # attempts to use FU when none available
system.cpu.iq.fu_full::SimdFloatMult                0                       # attempts to use FU when none available
system.cpu.iq.fu_full::SimdFloatMultAcc             0                       # attempts to use FU when none available
system.cpu.iq.fu_full::SimdFloatSqrt                0                       # attempts to use FU when none available
system.cpu.iq.fu_full::SimdReduceAdd                0                       # attempts to use FU when none available
system.cpu.iq.fu_full::SimdReduceAlu                0                       # attempts to use FU when none available
system.cpu.iq.fu_full::SimdReduceCmp                0                       # attempts to use FU when none available
system.cpu.iq.fu_full::SimdFloatReduceAdd            0                       # attempts to use FU when none available
system.cpu.iq.fu_full::SimdFloatReduceCmp            0                       # attempts to use FU when none available
system.cpu.iq.fu_full::SimdAes                      0                       # attempts to use FU when none available
system.cpu.iq.fu_full::SimdAesMix                   0                       # attempts to use FU when none available
system.cpu.iq.fu_full::SimdSha1Hash                 0                       # attempts to use FU when none available
system.cpu.iq.fu_full::SimdSha1Hash2                0                       # attempts to use FU when none available
system.cpu.iq.fu_full::SimdSha256Hash               0                       # attempts to use FU when none available
system.cpu.iq.fu_full::SimdSha256Hash2              0                       # attempts to use FU when none available
system.cpu.iq.fu_full::SimdShaSigma2                0                       # attempts to use FU when none available
system.cpu.iq.fu_full::SimdShaSigma3                0                       # attempts to use FU when none available
system.cpu.iq.fu_full::SimdPredAlu                  0                       # attempts to use FU when none available
system.cpu.iq.fu_full::MemRead                      0                       # attempts to use FU when none available
system.cpu.iq.fu_full::MemWrite                     0                       # attempts to use FU when none available
system.cpu.iq.fu_full::FloatMemRead                 0                       # attempts to use FU when none available
system.cpu.iq.fu_full::FloatMemWrite                0                       # attempts to use FU when none available
system.cpu.iq.fu_full::IprAccess                    0                       # attempts to use FU when none available
system.cpu.iq.fu_full::InstPrefetch                 0                       # attempts to use FU when none available
system.cpu.iq.int_alu_accesses                3978401                       # Number of integer alu accesses
system.cpu.iq.int_inst_queue_reads           10561236                       # Number of integer instruction queue reads
system.cpu.iq.int_inst_queue_wakeup_accesses      3952818                       # Number of integer instruction queue wakeup accesses
system.cpu.iq.int_inst_queue_writes           5149578                       # Number of integer instruction queue writes
system.cpu.iq.iqInstsAdded                    4407882                       # Number of instructions added to the IQ (excludes non-spec)
system.cpu.iq.iqInstsIssued                   4094280                       # Number of instructions issued
system.cpu.iq.iqNonSpecInstsAdded                1097                       # Number of non-speculative instructions added to the IQ
system.cpu.iq.iqSquashedInstsExamined          870893                       # Number of squashed instructions iterated over during squash; mainly for profiling
system.cpu.iq.iqSquashedInstsIssued             17629                       # Number of squashed instructions issued
system.cpu.iq.iqSquashedNonSpecRemoved            365                       # Number of squashed non-spec instructions that were removed
system.cpu.iq.iqSquashedOperandsExamined      1300971                       # Number of squashed operands that are examined and possibly removed from graph
system.cpu.iq.issued_per_cycle::samples       2535370                       # Number of insts issued each cycle
system.cpu.iq.issued_per_cycle::mean         1.614865                       # Number of insts issued each cycle
system.cpu.iq.issued_per_cycle::stdev        1.670657                       # Number of insts issued each cycle
system.cpu.iq.issued_per_cycle::underflows            0      0.00%      0.00% # Number of insts issued each cycle
system.cpu.iq.issued_per_cycle::0             1154384     45.53%     45.53% # Number of insts issued each cycle
system.cpu.iq.issued_per_cycle::1              168411      6.64%     52.17% # Number of insts issued each cycle
system.cpu.iq.issued_per_cycle::2              294787     11.63%     63.80% # Number of insts issued each cycle
system.cpu.iq.issued_per_cycle::3              334857     13.21%     77.01% # Number of insts issued each cycle
system.cpu.iq.issued_per_cycle::4              582931     22.99%    100.00% # Number of insts issued each cycle
system.cpu.iq.issued_per_cycle::overflows            0      0.00%    100.00% # Number of insts issued each cycle
system.cpu.iq.issued_per_cycle::min_value            0                       # Number of insts issued each cycle
system.cpu.iq.issued_per_cycle::max_value            4                       # Number of insts issued each cycle
system.cpu.iq.issued_per_cycle::total         2535370                       # Number of insts issued each cycle
system.cpu.iq.rate                           1.526134                       # Inst issue rate
system.cpu.iq.vec_alu_accesses                      0                       # Number of vector alu accesses
system.cpu.iq.vec_inst_queue_reads                  0                       # Number of vector instruction queue reads
system.cpu.iq.vec_inst_queue_wakeup_accesses            0                       # Number of vector instruction queue wakeup accesses
system.cpu.iq.vec_inst_queue_writes                 0                       # Number of vector instruction queue writes
system.cpu.itb.rdAccesses                           0                       # TLB accesses on read requests
system.cpu.itb.rdMisses                             0                       # TLB misses on read requests
system.cpu.itb.wrAccesses                      234606                       # TLB accesses on write requests
system.cpu.itb.wrMisses                           337                       # TLB misses on write requests
system.cpu.memDep0.conflictingLoads             12889                       # Number of conflicting loads.
system.cpu.memDep0.conflictingStores             3690                       # Number of conflicting stores.
system.cpu.memDep0.insertedLoads               598829                       # Number of loads inserted to the mem dependence unit.
system.cpu.memDep0.insertedStores              196975                       # Number of stores inserted to the mem dependence unit.
system.cpu.misc_regfile_reads                 1530800                       # number of misc regfile reads
system.cpu.misc_regfile_writes                    675                       # number of misc regfile writes
system.cpu.numCycles                          2682779                       # number of cpu cycles simulated
system.cpu.numWorkItemsCompleted                    0                       # number of work items this cpu completed
system.cpu.numWorkItemsStarted                      0                       # number of work items this cpu started
system.cpu.process.numSyscalls                     56                       # Number of system calls
system.cpu.rename.BlockCycles                  831779                       # Number of cycles rename is blocking
system.cpu.rename.CommittedMaps               4852189                       # Number of HB maps that are committed
system.cpu.rename.FullRegisterEvents               23                       # Number of times there has been no free registers
system.cpu.rename.IQFullEvents                  45475                       # Number of times rename has blocked due to IQ full
system.cpu.rename.IdleCycles                   336613                       # Number of cycles rename is idle
system.cpu.rename.LQFullEvents                  15852                       # Number of times rename has blocked due to LQ full
system.cpu.rename.ROBFullEvents                  4292                       # Number of times rename has blocked due to ROB full
system.cpu.rename.RenameLookups              11888570                       # Number of register rename lookups that rename has made
system.cpu.rename.RenamedInsts                4546196                       # Number of instructions processed by rename
system.cpu.rename.RenamedOperands             6225441                       # Number of destination operands rename has renamed
system.cpu.rename.RunCycles                   1151263                       # Number of cycles rename is running
system.cpu.rename.SQFullEvents                  74594                       # Number of times rename has blocked due to SQ full
system.cpu.rename.SquashCycles                  23736                       # Number of cycles rename is squashing
system.cpu.rename.UnblockCycles                172540                       # Number of cycles rename is unblocking
system.cpu.rename.UndoneMaps                  1373229                       # Number of HB maps that are undone due to squashing
system.cpu.rename.fp_rename_lookups            154343                       # Number of floating rename lookups
system.cpu.rename.int_rename_lookups          7223960                       # Number of integer rename lookups
system.cpu.rename.serializeStallCycles          19439                       # count of cycles rename stalled for serializing inst
system.cpu.rename.serializingInsts                868                       # count of serializing insts renamed
system.cpu.rename.skidInsts                    203265                       # count of insts added to the skid buffer
system.cpu.rename.tempSerializingInsts            918                       # count of temporary serializing insts renamed
system.cpu.rob.rob_reads                      6117962                       # The number of ROB reads
system.cpu.rob.rob_writes                     9056602                       # The number of ROB writes
system.cpu.timesIdled                            1478                       # Number of times that the entire CPU went into an idle state and unscheduled itself
system.l2bus.snoop_filter.hit_multi_requests           10                       # Number of requests hitting in the snoop filter with multiple (>1) holders of the requested data.
system.l2bus.snoop_filter.hit_multi_snoops            0                       # Number of snoops hitting in the snoop filter with multiple (>1) holders of the requested data.
system.l2bus.snoop_filter.hit_single_requests        18174                       # Number of requests hitting in the snoop filter with a single holder of the requested data.
system.l2bus.snoop_filter.hit_single_snoops          427                       # Number of snoops hitting in the snoop filter with a single holder of the requested data.
system.l2bus.snoop_filter.tot_requests          37628                       # Total number of requests made to the snoop filter.
system.l2bus.snoop_filter.tot_snoops              427                       # Total number of snoops made to the snoop filter.
system.l2cache.prefetcher.num_hwpf_issued          692                       # number of hwpf issued
system.l2cache.prefetcher.pfBufferHit               0                       # number of redundant prefetches already in prefetch queue
system.l2cache.prefetcher.pfIdentified            692                       # number of prefetch candidates identified
system.l2cache.prefetcher.pfInCache                 0                       # number of redundant prefetches already in cache/mshr dropped
system.l2cache.prefetcher.pfRemovedFull             0                       # number of prefetches dropped due to prefetch queue size
system.l2cache.prefetcher.pfSpanPage              120                       # number of prefetches that crossed the page
system.membus.snoop_filter.hit_multi_requests            0                       # Number of requests hitting in the snoop filter with multiple (>1) holders of the requested data.
system.membus.snoop_filter.hit_multi_snoops            0                       # Number of snoops hitting in the snoop filter with multiple (>1) holders of the requested data.
system.membus.snoop_filter.hit_single_requests         9266                       # Number of requests hitting in the snoop filter with a single holder of the requested data.
system.membus.snoop_filter.hit_single_snoops            0                       # Number of snoops hitting in the snoop filter with a single holder of the requested data.
system.membus.snoop_filter.tot_requests         22652                       # Total number of requests made to the snoop filter.
system.membus.snoop_filter.tot_snoops               0                       # Total number of snoops made to the snoop filter.
system.membus.pwrStateResidencyTicks::UNDEFINED   1073111200                       # Cumulative time (in ticks) in various power states
system.membus.trans_dist::ReadResp              12051                       # Transaction distribution
system.membus.trans_dist::WritebackDirty         1339                       # Transaction distribution
system.membus.trans_dist::CleanEvict             7927                       # Transaction distribution
system.membus.trans_dist::ReadExReq              1335                       # Transaction distribution
system.membus.trans_dist::ReadExResp             1335                       # Transaction distribution
system.membus.trans_dist::ReadSharedReq         12051                       # Transaction distribution
system.membus.pkt_count_system.l2cache.mem_side::system.mem_ctrl.port        36038                       # Packet count per connected master and slave (bytes)
system.membus.pkt_count_system.l2cache.mem_side::total        36038                       # Packet count per connected master and slave (bytes)
system.membus.pkt_count::total                  36038                       # Packet count per connected master and slave (bytes)
system.membus.pkt_size_system.l2cache.mem_side::system.mem_ctrl.port       942400                       # Cumulative packet size per connected master and slave (bytes)
system.membus.pkt_size_system.l2cache.mem_side::total       942400                       # Cumulative packet size per connected master and slave (bytes)
system.membus.pkt_size::total                  942400                       # Cumulative packet size per connected master and slave (bytes)
system.membus.snoops                                0                       # Total snoops (count)
system.membus.snoopTraffic                          0                       # Total snoop traffic (bytes)
system.membus.snoop_fanout::samples             13386                       # Request fanout histogram
system.membus.snoop_fanout::mean                    0                       # Request fanout histogram
system.membus.snoop_fanout::stdev                   0                       # Request fanout histogram
system.membus.snoop_fanout::underflows              0      0.00%      0.00% # Request fanout histogram
system.membus.snoop_fanout::0                   13386    100.00%    100.00% # Request fanout histogram
system.membus.snoop_fanout::1                       0      0.00%    100.00% # Request fanout histogram
system.membus.snoop_fanout::overflows               0      0.00%    100.00% # Request fanout histogram
system.membus.snoop_fanout::min_value               0                       # Request fanout histogram
system.membus.snoop_fanout::max_value               0                       # Request fanout histogram
system.membus.snoop_fanout::total               13386                       # Request fanout histogram
system.membus.reqLayer2.occupancy            11230147                       # Layer occupancy (ticks)
system.membus.reqLayer2.utilization               1.0                       # Layer utilization (%)
system.membus.respLayer0.occupancy           29058653                       # Layer occupancy (ticks)
system.membus.respLayer0.utilization              2.7                       # Layer utilization (%)
system.l2bus.pwrStateResidencyTicks::UNDEFINED   1073111200                       # Cumulative time (in ticks) in various power states
system.l2bus.trans_dist::ReadResp               17386                       # Transaction distribution
system.l2bus.trans_dist::WritebackDirty          4108                       # Transaction distribution
system.l2bus.trans_dist::CleanEvict             23420                       # Transaction distribution
system.l2bus.trans_dist::HardPFReq                985                       # Transaction distribution
system.l2bus.trans_dist::ReadExReq               2068                       # Transaction distribution
system.l2bus.trans_dist::ReadExResp              2068                       # Transaction distribution
system.l2bus.trans_dist::ReadSharedReq          17386                       # Transaction distribution
system.l2bus.pkt_count_system.cpu.icache.mem_side::system.l2cache.cpu_side         7634                       # Packet count per connected master and slave (bytes)
system.l2bus.pkt_count_system.cpu.dcache.mem_side::system.l2cache.cpu_side        49445                       # Packet count per connected master and slave (bytes)
system.l2bus.pkt_count::total                   57079                       # Packet count per connected master and slave (bytes)
system.l2bus.pkt_size_system.cpu.icache.mem_side::system.l2cache.cpu_side       168192                       # Cumulative packet size per connected master and slave (bytes)
system.l2bus.pkt_size_system.cpu.dcache.mem_side::system.l2cache.cpu_side      1253888                       # Cumulative packet size per connected master and slave (bytes)
system.l2bus.pkt_size::total                  1422080                       # Cumulative packet size per connected master and slave (bytes)
system.l2bus.snoops                             10342                       # Total snoops (count)
system.l2bus.snoopTraffic                       85888                       # Total snoop traffic (bytes)
system.l2bus.snoop_fanout::samples              29793                       # Request fanout histogram
system.l2bus.snoop_fanout::mean              0.014668                       # Request fanout histogram
system.l2bus.snoop_fanout::stdev             0.120222                       # Request fanout histogram
system.l2bus.snoop_fanout::underflows               0      0.00%      0.00% # Request fanout histogram
system.l2bus.snoop_fanout::0                    29356     98.53%     98.53% # Request fanout histogram
system.l2bus.snoop_fanout::1                      437      1.47%    100.00% # Request fanout histogram
system.l2bus.snoop_fanout::2                        0      0.00%    100.00% # Request fanout histogram
system.l2bus.snoop_fanout::overflows                0      0.00%    100.00% # Request fanout histogram
system.l2bus.snoop_fanout::min_value                0                       # Request fanout histogram
system.l2bus.snoop_fanout::max_value                1                       # Request fanout histogram
system.l2bus.snoop_fanout::total                29793                       # Request fanout histogram
system.l2bus.respLayer1.occupancy            20188398                       # Layer occupancy (ticks)
system.l2bus.respLayer1.utilization               1.9                       # Layer utilization (%)
system.l2bus.reqLayer0.occupancy             18666410                       # Layer occupancy (ticks)
system.l2bus.reqLayer0.utilization                1.7                       # Layer utilization (%)
system.l2bus.respLayer0.occupancy             3157200                       # Layer occupancy (ticks)
system.l2bus.respLayer0.utilization               0.3                       # Layer utilization (%)
system.clk_domain.clock                           400                       # Clock period in ticks
system.clk_domain.voltage_domain.voltage            1                       # Voltage in Volts
system.cpu.pwrStateResidencyTicks::ON      1073111200                       # Cumulative time (in ticks) in various power states
system.cpu.icache.pwrStateResidencyTicks::UNDEFINED   1073111200                       # Cumulative time (in ticks) in various power states
system.cpu.icache.demand_hits::.cpu.inst       231217                       # number of demand (read+write) hits
system.cpu.icache.demand_hits::total           231217                       # number of demand (read+write) hits
system.cpu.icache.overall_hits::.cpu.inst       231217                       # number of overall hits
system.cpu.icache.overall_hits::total          231217                       # number of overall hits
system.cpu.icache.demand_misses::.cpu.inst         3291                       # number of demand (read+write) misses
system.cpu.icache.demand_misses::total           3291                       # number of demand (read+write) misses
system.cpu.icache.overall_misses::.cpu.inst         3291                       # number of overall misses
system.cpu.icache.overall_misses::total          3291                       # number of overall misses
system.cpu.icache.demand_miss_latency::.cpu.inst    163461200                       # number of demand (read+write) miss cycles
system.cpu.icache.demand_miss_latency::total    163461200                       # number of demand (read+write) miss cycles
system.cpu.icache.overall_miss_latency::.cpu.inst    163461200                       # number of overall miss cycles
system.cpu.icache.overall_miss_latency::total    163461200                       # number of overall miss cycles
system.cpu.icache.demand_accesses::.cpu.inst       234508                       # number of demand (read+write) accesses
system.cpu.icache.demand_accesses::total       234508                       # number of demand (read+write) accesses
system.cpu.icache.overall_accesses::.cpu.inst       234508                       # number of overall (read+write) accesses
system.cpu.icache.overall_accesses::total       234508                       # number of overall (read+write) accesses
system.cpu.icache.demand_miss_rate::.cpu.inst     0.014034                       # miss rate for demand accesses
system.cpu.icache.demand_miss_rate::total     0.014034                       # miss rate for demand accesses
system.cpu.icache.overall_miss_rate::.cpu.inst     0.014034                       # miss rate for overall accesses
system.cpu.icache.overall_miss_rate::total     0.014034                       # miss rate for overall accesses
system.cpu.icache.demand_avg_miss_latency::.cpu.inst 49669.158311                       # average overall miss latency
system.cpu.icache.demand_avg_miss_latency::total 49669.158311                       # average overall miss latency
system.cpu.icache.overall_avg_miss_latency::.cpu.inst 49669.158311                       # average overall miss latency
system.cpu.icache.overall_avg_miss_latency::total 49669.158311                       # average overall miss latency
system.cpu.icache.blocked_cycles::no_mshrs           39                       # number of cycles access was blocked
system.cpu.icache.blocked_cycles::no_targets            0                       # number of cycles access was blocked
system.cpu.icache.blocked::no_mshrs                 2                       # number of cycles access was blocked
system.cpu.icache.blocked::no_targets               0                       # number of cycles access was blocked
system.cpu.icache.avg_blocked_cycles::no_mshrs    19.500000                       # average number of cycles each access was blocked
system.cpu.icache.avg_blocked_cycles::no_targets          nan                       # average number of cycles each access was blocked
system.cpu.icache.demand_mshr_hits::.cpu.inst          660                       # number of demand (read+write) MSHR hits
system.cpu.icache.demand_mshr_hits::total          660                       # number of demand (read+write) MSHR hits
system.cpu.icache.overall_mshr_hits::.cpu.inst          660                       # number of overall MSHR hits
system.cpu.icache.overall_mshr_hits::total          660                       # number of overall MSHR hits
system.cpu.icache.demand_mshr_misses::.cpu.inst         2631                       # number of demand (read+write) MSHR misses
system.cpu.icache.demand_mshr_misses::total         2631                       # number of demand (read+write) MSHR misses
system.cpu.icache.overall_mshr_misses::.cpu.inst         2631                       # number of overall MSHR misses
system.cpu.icache.overall_mshr_misses::total         2631                       # number of overall MSHR misses
system.cpu.icache.demand_mshr_miss_latency::.cpu.inst    132068000                       # number of demand (read+write) MSHR miss cycles
system.cpu.icache.demand_mshr_miss_latency::total    132068000                       # number of demand (read+write) MSHR miss cycles
system.cpu.icache.overall_mshr_miss_latency::.cpu.inst    132068000                       # number of overall MSHR miss cycles
system.cpu.icache.overall_mshr_miss_latency::total    132068000                       # number of overall MSHR miss cycles
system.cpu.icache.demand_mshr_miss_rate::.cpu.inst     0.011219                       # mshr miss rate for demand accesses
system.cpu.icache.demand_mshr_miss_rate::total     0.011219                       # mshr miss rate for demand accesses
system.cpu.icache.overall_mshr_miss_rate::.cpu.inst     0.011219                       # mshr miss rate for overall accesses
system.cpu.icache.overall_mshr_miss_rate::total     0.011219                       # mshr miss rate for overall accesses
system.cpu.icache.demand_avg_mshr_miss_latency::.cpu.inst 50196.883314                       # average overall mshr miss latency
system.cpu.icache.demand_avg_mshr_miss_latency::total 50196.883314                       # average overall mshr miss latency
system.cpu.icache.overall_avg_mshr_miss_latency::.cpu.inst 50196.883314                       # average overall mshr miss latency
system.cpu.icache.overall_avg_mshr_miss_latency::total 50196.883314                       # average overall mshr miss latency
system.cpu.icache.replacements                   2375                       # number of replacements
system.cpu.icache.ReadReq_hits::.cpu.inst       231217                       # number of ReadReq hits
system.cpu.icache.ReadReq_hits::total          231217                       # number of ReadReq hits
system.cpu.icache.ReadReq_misses::.cpu.inst         3291                       # number of ReadReq misses
system.cpu.icache.ReadReq_misses::total          3291                       # number of ReadReq misses
system.cpu.icache.ReadReq_miss_latency::.cpu.inst    163461200                       # number of ReadReq miss cycles
system.cpu.icache.ReadReq_miss_latency::total    163461200                       # number of ReadReq miss cycles
system.cpu.icache.ReadReq_accesses::.cpu.inst       234508                       # number of ReadReq accesses(hits+misses)
system.cpu.icache.ReadReq_accesses::total       234508                       # number of ReadReq accesses(hits+misses)
system.cpu.icache.ReadReq_miss_rate::.cpu.inst     0.014034                       # miss rate for ReadReq accesses
system.cpu.icache.ReadReq_miss_rate::total     0.014034                       # miss rate for ReadReq accesses
system.cpu.icache.ReadReq_avg_miss_latency::.cpu.inst 49669.158311                       # average ReadReq miss latency
system.cpu.icache.ReadReq_avg_miss_latency::total 49669.158311                       # average ReadReq miss latency
system.cpu.icache.ReadReq_mshr_hits::.cpu.inst          660                       # number of ReadReq MSHR hits
system.cpu.icache.ReadReq_mshr_hits::total          660                       # number of ReadReq MSHR hits
system.cpu.icache.ReadReq_mshr_misses::.cpu.inst         2631                       # number of ReadReq MSHR misses
system.cpu.icache.ReadReq_mshr_misses::total         2631                       # number of ReadReq MSHR misses
system.cpu.icache.ReadReq_mshr_miss_latency::.cpu.inst    132068000                       # number of ReadReq MSHR miss cycles
system.cpu.icache.ReadReq_mshr_miss_latency::total    132068000                       # number of ReadReq MSHR miss cycles
system.cpu.icache.ReadReq_mshr_miss_rate::.cpu.inst     0.011219                       # mshr miss rate for ReadReq accesses
system.cpu.icache.ReadReq_mshr_miss_rate::total     0.011219                       # mshr miss rate for ReadReq accesses
system.cpu.icache.ReadReq_avg_mshr_miss_latency::.cpu.inst 50196.883314                       # average ReadReq mshr miss latency
system.cpu.icache.ReadReq_avg_mshr_miss_latency::total 50196.883314                       # average ReadReq mshr miss latency
system.cpu.icache.prefetcher.pwrStateResidencyTicks::UNDEFINED   1073111200                       # Cumulative time (in ticks) in various power states
system.cpu.icache.tags.pwrStateResidencyTicks::UNDEFINED   1073111200                       # Cumulative time (in ticks) in various power states
system.cpu.icache.tags.tagsinuse           253.433821                       # Cycle average of tags in use
system.cpu.icache.tags.total_refs              203158                       # Total number of references to valid blocks.
system.cpu.icache.tags.sampled_refs              2375                       # Sample count of references to valid blocks.
system.cpu.icache.tags.avg_refs             85.540211                       # Average number of references to valid blocks.
system.cpu.icache.tags.warmup_cycle             66400                       # Cycle when the warmup percentage was hit.
system.cpu.icache.tags.occ_blocks::.cpu.inst   253.433821                       # Average occupied blocks per requestor
system.cpu.icache.tags.occ_percent::.cpu.inst     0.989976                       # Average percentage of cache occupancy
system.cpu.icache.tags.occ_percent::total     0.989976                       # Average percentage of cache occupancy
system.cpu.icache.tags.occ_task_id_blocks::1024          256                       # Occupied blocks per task id
system.cpu.icache.tags.age_task_id_blocks_1024::0          105                       # Occupied blocks per task id
system.cpu.icache.tags.age_task_id_blocks_1024::1          132                       # Occupied blocks per task id
system.cpu.icache.tags.age_task_id_blocks_1024::2           19                       # Occupied blocks per task id
system.cpu.icache.tags.occ_task_id_percent::1024            1                       # Percentage of cache occupancy per task id
system.cpu.icache.tags.tag_accesses            471647                       # Number of tag accesses
system.cpu.icache.tags.data_accesses           471647                       # Number of data accesses
system.cpu.dtb.walker.pwrStateResidencyTicks::UNDEFINED   1073111200                       # Cumulative time (in ticks) in various power states
system.cpu.interrupts.clk_domain.clock           6400                       # Clock period in ticks
system.cpu.itb.walker.pwrStateResidencyTicks::UNDEFINED   1073111200                       # Cumulative time (in ticks) in various power states
system.cpu.dcache.pwrStateResidencyTicks::UNDEFINED   1073111200                       # Cumulative time (in ticks) in various power states
system.cpu.dcache.demand_hits::.cpu.data       659992                       # number of demand (read+write) hits
system.cpu.dcache.demand_hits::total           659992                       # number of demand (read+write) hits
system.cpu.dcache.overall_hits::.cpu.data       659992                       # number of overall hits
system.cpu.dcache.overall_hits::total          659992                       # number of overall hits
system.cpu.dcache.demand_misses::.cpu.data        34980                       # number of demand (read+write) misses
system.cpu.dcache.demand_misses::total          34980                       # number of demand (read+write) misses
system.cpu.dcache.overall_misses::.cpu.data        34980                       # number of overall misses
system.cpu.dcache.overall_misses::total         34980                       # number of overall misses
system.cpu.dcache.demand_miss_latency::.cpu.data   1688004000                       # number of demand (read+write) miss cycles
system.cpu.dcache.demand_miss_latency::total   1688004000                       # number of demand (read+write) miss cycles
system.cpu.dcache.overall_miss_latency::.cpu.data   1688004000                       # number of overall miss cycles
system.cpu.dcache.overall_miss_latency::total   1688004000                       # number of overall miss cycles
system.cpu.dcache.demand_accesses::.cpu.data       694972                       # number of demand (read+write) accesses
system.cpu.dcache.demand_accesses::total       694972                       # number of demand (read+write) accesses
system.cpu.dcache.overall_accesses::.cpu.data       694972                       # number of overall (read+write) accesses
system.cpu.dcache.overall_accesses::total       694972                       # number of overall (read+write) accesses
system.cpu.dcache.demand_miss_rate::.cpu.data     0.050333                       # miss rate for demand accesses
system.cpu.dcache.demand_miss_rate::total     0.050333                       # miss rate for demand accesses
system.cpu.dcache.overall_miss_rate::.cpu.data     0.050333                       # miss rate for overall accesses
system.cpu.dcache.overall_miss_rate::total     0.050333                       # miss rate for overall accesses
system.cpu.dcache.demand_avg_miss_latency::.cpu.data 48256.260720                       # average overall miss latency
system.cpu.dcache.demand_avg_miss_latency::total 48256.260720                       # average overall miss latency
system.cpu.dcache.overall_avg_miss_latency::.cpu.data 48256.260720                       # average overall miss latency
system.cpu.dcache.overall_avg_miss_latency::total 48256.260720                       # average overall miss latency
system.cpu.dcache.blocked_cycles::no_mshrs        30748                       # number of cycles access was blocked
system.cpu.dcache.blocked_cycles::no_targets          299                       # number of cycles access was blocked
system.cpu.dcache.blocked::no_mshrs               744                       # number of cycles access was blocked
system.cpu.dcache.blocked::no_targets               3                       # number of cycles access was blocked
system.cpu.dcache.avg_blocked_cycles::no_mshrs    41.327957                       # average number of cycles each access was blocked
system.cpu.dcache.avg_blocked_cycles::no_targets    99.666667                       # average number of cycles each access was blocked
system.cpu.dcache.unused_prefetches              1760                       # number of HardPF blocks evicted w/o reference
system.cpu.dcache.writebacks::.writebacks         2769                       # number of writebacks
system.cpu.dcache.writebacks::total              2769                       # number of writebacks
system.cpu.dcache.demand_mshr_hits::.cpu.data        22416                       # number of demand (read+write) MSHR hits
system.cpu.dcache.demand_mshr_hits::total        22416                       # number of demand (read+write) MSHR hits
system.cpu.dcache.overall_mshr_hits::.cpu.data        22416                       # number of overall MSHR hits
system.cpu.dcache.overall_mshr_hits::total        22416                       # number of overall MSHR hits
system.cpu.dcache.demand_mshr_misses::.cpu.data        12564                       # number of demand (read+write) MSHR misses
system.cpu.dcache.demand_mshr_misses::total        12564                       # number of demand (read+write) MSHR misses
system.cpu.dcache.overall_mshr_misses::.cpu.data        12564                       # number of overall MSHR misses
system.cpu.dcache.overall_mshr_misses::.cpu.dcache.prefetcher         4259                       # number of overall MSHR misses
system.cpu.dcache.overall_mshr_misses::total        16823                       # number of overall MSHR misses
system.cpu.dcache.demand_mshr_miss_latency::.cpu.data    575581200                       # number of demand (read+write) MSHR miss cycles
system.cpu.dcache.demand_mshr_miss_latency::total    575581200                       # number of demand (read+write) MSHR miss cycles
system.cpu.dcache.overall_mshr_miss_latency::.cpu.data    575581200                       # number of overall MSHR miss cycles
system.cpu.dcache.overall_mshr_miss_latency::.cpu.dcache.prefetcher    246689913                       # number of overall MSHR miss cycles
system.cpu.dcache.overall_mshr_miss_latency::total    822271113                       # number of overall MSHR miss cycles
system.cpu.dcache.demand_mshr_miss_rate::.cpu.data     0.018078                       # mshr miss rate for demand accesses
system.cpu.dcache.demand_mshr_miss_rate::total     0.018078                       # mshr miss rate for demand accesses
system.cpu.dcache.overall_mshr_miss_rate::.cpu.data     0.018078                       # mshr miss rate for overall accesses
system.cpu.dcache.overall_mshr_miss_rate::.cpu.dcache.prefetcher          inf                       # mshr miss rate for overall accesses
system.cpu.dcache.overall_mshr_miss_rate::total     0.024207                       # mshr miss rate for overall accesses
system.cpu.dcache.demand_avg_mshr_miss_latency::.cpu.data 45811.938873                       # average overall mshr miss latency
system.cpu.dcache.demand_avg_mshr_miss_latency::total 45811.938873                       # average overall mshr miss latency
system.cpu.dcache.overall_avg_mshr_miss_latency::.cpu.data 45811.938873                       # average overall mshr miss latency
system.cpu.dcache.overall_avg_mshr_miss_latency::.cpu.dcache.prefetcher 57922.027002                       # average overall mshr miss latency
system.cpu.dcache.overall_avg_mshr_miss_latency::total 48877.793081                       # average overall mshr miss latency
system.cpu.dcache.replacements                  15799                       # number of replacements
system.cpu.dcache.ReadReq_hits::.cpu.data       493671                       # number of ReadReq hits
system.cpu.dcache.ReadReq_hits::total          493671                       # number of ReadReq hits
system.cpu.dcache.ReadReq_misses::.cpu.data        32876                       # number of ReadReq misses
system.cpu.dcache.ReadReq_misses::total         32876                       # number of ReadReq misses
system.cpu.dcache.ReadReq_miss_latency::.cpu.data   1583912400                       # number of ReadReq miss cycles
system.cpu.dcache.ReadReq_miss_latency::total   1583912400                       # number of ReadReq miss cycles
system.cpu.dcache.ReadReq_accesses::.cpu.data       526547                       # number of ReadReq accesses(hits+misses)
system.cpu.dcache.ReadReq_accesses::total       526547                       # number of ReadReq accesses(hits+misses)
system.cpu.dcache.ReadReq_miss_rate::.cpu.data     0.062437                       # miss rate for ReadReq accesses
system.cpu.dcache.ReadReq_miss_rate::total     0.062437                       # miss rate for ReadReq accesses
system.cpu.dcache.ReadReq_avg_miss_latency::.cpu.data 48178.379365                       # average ReadReq miss latency
system.cpu.dcache.ReadReq_avg_miss_latency::total 48178.379365                       # average ReadReq miss latency
system.cpu.dcache.ReadReq_mshr_hits::.cpu.data        22379                       # number of ReadReq MSHR hits
system.cpu.dcache.ReadReq_mshr_hits::total        22379                       # number of ReadReq MSHR hits
system.cpu.dcache.ReadReq_mshr_misses::.cpu.data        10497                       # number of ReadReq MSHR misses
system.cpu.dcache.ReadReq_mshr_misses::total        10497                       # number of ReadReq MSHR misses
system.cpu.dcache.ReadReq_mshr_miss_latency::.cpu.data    474343600                       # number of ReadReq MSHR miss cycles
system.cpu.dcache.ReadReq_mshr_miss_latency::total    474343600                       # number of ReadReq MSHR miss cycles
system.cpu.dcache.ReadReq_mshr_miss_rate::.cpu.data     0.019936                       # mshr miss rate for ReadReq accesses
system.cpu.dcache.ReadReq_mshr_miss_rate::total     0.019936                       # mshr miss rate for ReadReq accesses
system.cpu.dcache.ReadReq_avg_mshr_miss_latency::.cpu.data 45188.491950                       # average ReadReq mshr miss latency
system.cpu.dcache.ReadReq_avg_mshr_miss_latency::total 45188.491950                       # average ReadReq mshr miss latency
system.cpu.dcache.WriteReq_hits::.cpu.data       166321                       # number of WriteReq hits
system.cpu.dcache.WriteReq_hits::total         166321                       # number of WriteReq hits
system.cpu.dcache.WriteReq_misses::.cpu.data         2104                       # number of WriteReq misses
system.cpu.dcache.WriteReq_misses::total         2104                       # number of WriteReq misses
system.cpu.dcache.WriteReq_miss_latency::.cpu.data    104091600                       # number of WriteReq miss cycles
system.cpu.dcache.WriteReq_miss_latency::total    104091600                       # number of WriteReq miss cycles
system.cpu.dcache.WriteReq_accesses::.cpu.data       168425                       # number of WriteReq accesses(hits+misses)
system.cpu.dcache.WriteReq_accesses::total       168425                       # number of WriteReq accesses(hits+misses)
system.cpu.dcache.WriteReq_miss_rate::.cpu.data     0.012492                       # miss rate for WriteReq accesses
system.cpu.dcache.WriteReq_miss_rate::total     0.012492                       # miss rate for WriteReq accesses
system.cpu.dcache.WriteReq_avg_miss_latency::.cpu.data 49473.193916                       # average WriteReq miss latency
system.cpu.dcache.WriteReq_avg_miss_latency::total 49473.193916                       # average WriteReq miss latency
system.cpu.dcache.WriteReq_mshr_hits::.cpu.data           37                       # number of WriteReq MSHR hits
system.cpu.dcache.WriteReq_mshr_hits::total           37                       # number of WriteReq MSHR hits
system.cpu.dcache.WriteReq_mshr_misses::.cpu.data         2067                       # number of WriteReq MSHR misses
system.cpu.dcache.WriteReq_mshr_misses::total         2067                       # number of WriteReq MSHR misses
system.cpu.dcache.WriteReq_mshr_miss_latency::.cpu.data    101237600                       # number of WriteReq MSHR miss cycles
system.cpu.dcache.WriteReq_mshr_miss_latency::total    101237600                       # number of WriteReq MSHR miss cycles
[...]
system.l2cache.demand_mshr_misses::.cpu.data          190                       # number of demand (read+write) MSHR misses
system.l2cache.demand_mshr_misses::.cpu.dcache.prefetcher           49                       # number of demand (read+write) MSHR misses
system.l2cache.demand_mshr_misses::total          750                       # number of demand (read+write) MSHR misses
system.l2cache.overall_mshr_misses::.cpu.inst          511                       # number of overall MSHR misses
system.l2cache.overall_mshr_misses::.cpu.data          190                       # number of overall MSHR misses
system.l2cache.overall_mshr_misses::.cpu.dcache.prefetcher           49                       # number of overall MSHR misses
system.l2cache.overall_mshr_misses::total          750                       # number of overall MSHR misses
system.l2cache.demand_mshr_miss_latency::.cpu.inst     30558800                       # number of demand (read+write) MSHR miss cycles
system.l2cache.demand_mshr_miss_latency::.cpu.data     11856000                       # number of demand (read+write) MSHR miss cycles
system.l2cache.demand_mshr_miss_latency::.cpu.dcache.prefetcher      3011552                       # number of demand (read+write) MSHR miss cycles
system.l2cache.demand_mshr_miss_latency::total     45426352                       # number of demand (read+write) MSHR miss cycles
system.l2cache.overall_mshr_miss_latency::.cpu.inst     30558800                       # number of overall MSHR miss cycles
system.l2cache.overall_mshr_miss_latency::.cpu.data     11856000                       # number of overall MSHR miss cycles
system.l2cache.overall_mshr_miss_latency::.cpu.dcache.prefetcher      3011552                       # number of overall MSHR miss cycles
system.l2cache.overall_mshr_miss_latency::total     45426352                       # number of overall MSHR miss cycles
system.l2cache.demand_mshr_miss_rate::.cpu.inst     0.379080                       # mshr miss rate for demand accesses
system.l2cache.demand_mshr_miss_rate::.cpu.data     0.582822                       # mshr miss rate for demand accesses
system.l2cache.demand_mshr_miss_rate::.cpu.dcache.prefetcher     0.830508                       # mshr miss rate for demand accesses
system.l2cache.demand_mshr_miss_rate::total     0.432776                       # mshr miss rate for demand accesses
system.l2cache.overall_mshr_miss_rate::.cpu.inst     0.379080                       # mshr miss rate for overall accesses
system.l2cache.overall_mshr_miss_rate::.cpu.data     0.582822                       # mshr miss rate for overall accesses
system.l2cache.overall_mshr_miss_rate::.cpu.dcache.prefetcher     0.830508                       # mshr miss rate for overall accesses
system.l2cache.overall_mshr_miss_rate::total     0.432776                       # mshr miss rate for overall accesses
system.l2cache.demand_avg_mshr_miss_latency::.cpu.inst 59801.956947                       # average overall mshr miss latency
system.l2cache.demand_avg_mshr_miss_latency::.cpu.data        62400                       # average overall mshr miss latency
system.l2cache.demand_avg_mshr_miss_latency::.cpu.dcache.prefetcher 61460.244898                       # average overall mshr miss latency
system.l2cache.demand_avg_mshr_miss_latency::total 60568.469333                       # average overall mshr miss latency
system.l2cache.overall_avg_mshr_miss_latency::.cpu.inst 59801.956947                       # average overall mshr miss latency
system.l2cache.overall_avg_mshr_miss_latency::.cpu.data        62400                       # average overall mshr miss latency
system.l2cache.overall_avg_mshr_miss_latency::.cpu.dcache.prefetcher 61460.244898                       # average overall mshr miss latency
system.l2cache.overall_avg_mshr_miss_latency::total 60568.469333                       # average overall mshr miss latency
system.l2cache.replacements                       765                       # number of replacements
system.l2cache.WritebackDirty_hits::.writebacks           96                       # number of WritebackDirty hits
system.l2cache.WritebackDirty_hits::total           96                       # number of WritebackDirty hits
system.l2cache.WritebackDirty_accesses::.writebacks           96                       # number of WritebackDirty accesses(hits+misses)
system.l2cache.WritebackDirty_accesses::total           96                       # number of WritebackDirty accesses(hits+misses)
system.l2cache.CleanEvict_mshr_misses::.writebacks           34                       # number of CleanEvict MSHR misses
system.l2cache.CleanEvict_mshr_misses::total           34                       # number of CleanEvict MSHR misses
system.l2cache.CleanEvict_mshr_miss_rate::.writebacks          inf                       # mshr miss rate for CleanEvict accesses
system.l2cache.CleanEvict_mshr_miss_rate::total          inf                       # mshr miss rate for CleanEvict accesses
system.l2cache.ReadExReq_hits::.cpu.data            4                       # number of ReadExReq hits
system.l2cache.ReadExReq_hits::total                4                       # number of ReadExReq hits
system.l2cache.ReadExReq_misses::.cpu.data           35                       # number of ReadExReq misses
system.l2cache.ReadExReq_misses::total             35                       # number of ReadExReq misses
system.l2cache.ReadExReq_miss_latency::.cpu.data      2583600                       # number of ReadExReq miss cycles
system.l2cache.ReadExReq_miss_latency::total      2583600                       # number of ReadExReq miss cycles
system.l2cache.ReadExReq_accesses::.cpu.data           39                       # number of ReadExReq accesses(hits+misses)
system.l2cache.ReadExReq_accesses::total           39                       # number of ReadExReq accesses(hits+misses)
system.l2cache.ReadExReq_miss_rate::.cpu.data     0.897436                       # miss rate for ReadExReq accesses
system.l2cache.ReadExReq_miss_rate::total     0.897436                       # miss rate for ReadExReq accesses
system.l2cache.ReadExReq_avg_miss_latency::.cpu.data 73817.142857                       # average ReadExReq miss latency
system.l2cache.ReadExReq_avg_miss_latency::total 73817.142857                       # average ReadExReq miss latency
system.l2cache.ReadExReq_mshr_misses::.cpu.data           35                       # number of ReadExReq MSHR misses
system.l2cache.ReadExReq_mshr_misses::total           35                       # number of ReadExReq MSHR misses
system.l2cache.ReadExReq_mshr_miss_latency::.cpu.data      2303600                       # number of ReadExReq MSHR miss cycles
system.l2cache.ReadExReq_mshr_miss_latency::total      2303600                       # number of ReadExReq MSHR miss cycles
system.l2cache.ReadExReq_mshr_miss_rate::.cpu.data     0.897436                       # mshr miss rate for ReadExReq accesses
system.l2cache.ReadExReq_mshr_miss_rate::total     0.897436                       # mshr miss rate for ReadExReq accesses
system.l2cache.ReadExReq_avg_mshr_miss_latency::.cpu.data 65817.142857                       # average ReadExReq mshr miss latency
system.l2cache.ReadExReq_avg_mshr_miss_latency::total 65817.142857                       # average ReadExReq mshr miss latency
system.l2cache.ReadSharedReq_hits::.cpu.inst          837                       # number of ReadSharedReq hits
system.l2cache.ReadSharedReq_hits::.cpu.data          131                       # number of ReadSharedReq hits
system.l2cache.ReadSharedReq_hits::.cpu.dcache.prefetcher           10                       # number of ReadSharedReq hits
system.l2cache.ReadSharedReq_hits::total          978                       # number of ReadSharedReq hits
system.l2cache.ReadSharedReq_misses::.cpu.inst          511                       # number of ReadSharedReq misses
system.l2cache.ReadSharedReq_misses::.cpu.data          156                       # number of ReadSharedReq misses
system.l2cache.ReadSharedReq_misses::.cpu.dcache.prefetcher           49                       # number of ReadSharedReq misses
system.l2cache.ReadSharedReq_misses::total          716                       # number of ReadSharedReq misses
system.l2cache.ReadSharedReq_miss_latency::.cpu.inst     34646800                       # number of ReadSharedReq miss cycles
system.l2cache.ReadSharedReq_miss_latency::.cpu.data     10848800                       # number of ReadSharedReq miss cycles
system.l2cache.ReadSharedReq_miss_latency::.cpu.dcache.prefetcher      3403552                       # number of ReadSharedReq miss cycles
system.l2cache.ReadSharedReq_miss_latency::total     48899152                       # number of ReadSharedReq miss cycles
system.l2cache.ReadSharedReq_accesses::.cpu.inst         1348                       # number of ReadSharedReq accesses(hits+misses)
system.l2cache.ReadSharedReq_accesses::.cpu.data          287                       # number of ReadSharedReq accesses(hits+misses)
system.l2cache.ReadSharedReq_accesses::.cpu.dcache.prefetcher           59                       # number of ReadSharedReq accesses(hits+misses)
system.l2cache.ReadSharedReq_accesses::total         1694                       # number of ReadSharedReq accesses(hits+misses)
system.l2cache.ReadSharedReq_miss_rate::.cpu.inst     0.379080                       # miss rate for ReadSharedReq accesses
system.l2cache.ReadSharedReq_miss_rate::.cpu.data     0.543554                       # miss rate for ReadSharedReq accesses
system.l2cache.ReadSharedReq_miss_rate::.cpu.dcache.prefetcher     0.830508                       # miss rate for ReadSharedReq accesses
system.l2cache.ReadSharedReq_miss_rate::total     0.422668                       # miss rate for ReadSharedReq accesses
system.l2cache.ReadSharedReq_avg_miss_latency::.cpu.inst 67801.956947                       # average ReadSharedReq miss latency
system.l2cache.ReadSharedReq_avg_miss_latency::.cpu.data 69543.589744                       # average ReadSharedReq miss latency
system.l2cache.ReadSharedReq_avg_miss_latency::.cpu.dcache.prefetcher 69460.244898                       # average ReadSharedReq miss latency
system.l2cache.ReadSharedReq_avg_miss_latency::total 68294.905028                       # average ReadSharedReq miss latency
system.l2cache.ReadSharedReq_mshr_hits::.cpu.data            1                       # number of ReadSharedReq MSHR hits
system.l2cache.ReadSharedReq_mshr_hits::total            1                       # number of ReadSharedReq MSHR hits
system.l2cache.ReadSharedReq_mshr_misses::.cpu.inst          511                       # number of ReadSharedReq MSHR misses
system.l2cache.ReadSharedReq_mshr_misses::.cpu.data          155                       # number of ReadSharedReq MSHR misses
system.l2cache.ReadSharedReq_mshr_misses::.cpu.dcache.prefetcher           49                       # number of ReadSharedReq MSHR misses
system.l2cache.ReadSharedReq_mshr_misses::total          715                       # number of ReadSharedReq MSHR misses
system.l2cache.ReadSharedReq_mshr_miss_latency::.cpu.inst     30558800                       # number of ReadSharedReq MSHR miss cycles
system.l2cache.ReadSharedReq_mshr_miss_latency::.cpu.data      9552400                       # number of ReadSharedReq MSHR miss cycles
system.l2cache.ReadSharedReq_mshr_miss_latency::.cpu.dcache.prefetcher      3011552                       # number of ReadSharedReq MSHR miss cycles
system.l2cache.ReadSharedReq_mshr_miss_latency::total     43122752                       # number of ReadSharedReq MSHR miss cycles
system.l2cache.ReadSharedReq_mshr_miss_rate::.cpu.inst     0.379080                       # mshr miss rate for ReadSharedReq accesses
system.l2cache.ReadSharedReq_mshr_miss_rate::.cpu.data     0.540070                       # mshr miss rate for ReadSharedReq accesses
system.l2cache.ReadSharedReq_mshr_miss_rate::.cpu.dcache.prefetcher     0.830508                       # mshr miss rate for ReadSharedReq accesses
system.l2cache.ReadSharedReq_mshr_miss_rate::total     0.422078                       # mshr miss rate for ReadSharedReq accesses
system.l2cache.ReadSharedReq_avg_mshr_miss_latency::.cpu.inst 59801.956947                       # average ReadSharedReq mshr miss latency
system.l2cache.ReadSharedReq_avg_mshr_miss_latency::.cpu.data 61628.387097                       # average ReadSharedReq mshr miss latency
system.l2cache.ReadSharedReq_avg_mshr_miss_latency::.cpu.dcache.prefetcher 61460.244898                       # average ReadSharedReq mshr miss latency
system.l2cache.ReadSharedReq_avg_mshr_miss_latency::total 60311.541259                       # average ReadSharedReq mshr miss latency
system.l2cache.prefetcher.pwrStateResidencyTicks::UNDEFINED     56448000                       # Cumulative time (in ticks) in various power states
system.l2cache.tags.pwrStateResidencyTicks::UNDEFINED     56448000                       # Cumulative time (in ticks) in various power states
system.l2cache.tags.tagsinuse                    4096                       # Cycle average of tags in use
system.l2cache.tags.total_refs                  15819                       # Total number of references to valid blocks.
system.l2cache.tags.sampled_refs                 4861                       # Sample count of references to valid blocks.
system.l2cache.tags.avg_refs                 3.254269                       # Average number of references to valid blocks.
system.l2cache.tags.warmup_cycle                    0                       # Cycle when the warmup percentage was hit.
system.l2cache.tags.occ_blocks::.writebacks    43.812018                       # Average occupied blocks per requestor
system.l2cache.tags.occ_blocks::.cpu.inst  1162.893314                       # Average occupied blocks per requestor
system.l2cache.tags.occ_blocks::.cpu.data  1816.783183                       # Average occupied blocks per requestor
system.l2cache.tags.occ_blocks::.cpu.dcache.prefetcher   951.443111                       # Average occupied blocks per requestor
system.l2cache.tags.occ_blocks::.l2cache.prefetcher   121.068374                       # Average occupied blocks per requestor
system.l2cache.tags.occ_percent::.writebacks     0.010696                       # Average percentage of cache occupancy
system.l2cache.tags.occ_percent::.cpu.inst     0.283910                       # Average percentage of cache occupancy
system.l2cache.tags.occ_percent::.cpu.data     0.443551                       # Average percentage of cache occupancy
system.l2cache.tags.occ_percent::.cpu.dcache.prefetcher     0.232286                       # Average percentage of cache occupancy
system.l2cache.tags.occ_percent::.l2cache.prefetcher     0.029558                       # Average percentage of cache occupancy
system.l2cache.tags.occ_percent::total              1                       # Average percentage of cache occupancy
system.l2cache.tags.occ_task_id_blocks::1022          976                       # Occupied blocks per task id
system.l2cache.tags.occ_task_id_blocks::1024         3120                       # Occupied blocks per task id
system.l2cache.tags.age_task_id_blocks_1022::0           11                       # Occupied blocks per task id
system.l2cache.tags.age_task_id_blocks_1022::1           40                       # Occupied blocks per task id
system.l2cache.tags.age_task_id_blocks_1022::3          925                       # Occupied blocks per task id
system.l2cache.tags.age_task_id_blocks_1024::0          177                       # Occupied blocks per task id
system.l2cache.tags.age_task_id_blocks_1024::1          537                       # Occupied blocks per task id
system.l2cache.tags.age_task_id_blocks_1024::3         2406                       # Occupied blocks per task id
system.l2cache.tags.occ_task_id_percent::1022     0.238281                       # Percentage of cache occupancy per task id
system.l2cache.tags.occ_task_id_percent::1024     0.761719                       # Percentage of cache occupancy per task id
system.l2cache.tags.tag_accesses                28485                       # Number of tag accesses
system.l2cache.tags.data_accesses               28485                       # Number of data accesses
system.mem_ctrl.pwrStateResidencyTicks::UNDEFINED     56448000                       # Cumulative time (in ticks) in various power states
system.mem_ctrl.bytes_read::.cpu.inst           32704                       # Number of bytes read from this memory
system.mem_ctrl.bytes_read::.cpu.data           12160                       # Number of bytes read from this memory
system.mem_ctrl.bytes_read::.cpu.dcache.prefetcher         3136                       # Number of bytes read from this memory
system.mem_ctrl.bytes_read::total               48000                       # Number of bytes read from this memory
system.mem_ctrl.bytes_inst_read::.cpu.inst        32704                       # Number of instructions bytes read from this memory
system.mem_ctrl.bytes_inst_read::total          32704                       # Number of instructions bytes read from this memory
system.mem_ctrl.bytes_written::.writebacks         2880                       # Number of bytes written to this memory
system.mem_ctrl.bytes_written::total             2880                       # Number of bytes written to this memory
system.mem_ctrl.num_reads::.cpu.inst              511                       # Number of read requests responded to by this memory
system.mem_ctrl.num_reads::.cpu.data              190                       # Number of read requests responded to by this memory
system.mem_ctrl.num_reads::.cpu.dcache.prefetcher           49                       # Number of read requests responded to by this memory
system.mem_ctrl.num_reads::total                  750                       # Number of read requests responded to by this memory
system.mem_ctrl.num_writes::.writebacks            45                       # Number of write requests responded to by this memory
system.mem_ctrl.num_writes::total                  45                       # Number of write requests responded to by this memory
system.mem_ctrl.bw_read::.cpu.inst          579365079                       # Total read bandwidth from this memory (bytes/s)
system.mem_ctrl.bw_read::.cpu.data          215419501                       # Total read bandwidth from this memory (bytes/s)
system.mem_ctrl.bw_read::.cpu.dcache.prefetcher     55555556                       # Total read bandwidth from this memory (bytes/s)
system.mem_ctrl.bw_read::total              850340136                       # Total read bandwidth from this memory (bytes/s)
system.mem_ctrl.bw_inst_read::.cpu.inst     579365079                       # Instruction read bandwidth from this memory (bytes/s)
system.mem_ctrl.bw_inst_read::total         579365079                       # Instruction read bandwidth from this memory (bytes/s)
system.mem_ctrl.bw_write::.writebacks        51020408                       # Write bandwidth from this memory (bytes/s)
system.mem_ctrl.bw_write::total              51020408                       # Write bandwidth from this memory (bytes/s)
system.mem_ctrl.bw_total::.writebacks        51020408                       # Total bandwidth to/from this memory (bytes/s)
system.mem_ctrl.bw_total::.cpu.inst         579365079                       # Total bandwidth to/from this memory (bytes/s)
system.mem_ctrl.bw_total::.cpu.data         215419501                       # Total bandwidth to/from this memory (bytes/s)
system.mem_ctrl.bw_total::.cpu.dcache.prefetcher     55555556                       # Total bandwidth to/from this memory (bytes/s)
system.mem_ctrl.bw_total::total             901360544                       # Total bandwidth to/from this memory (bytes/s)

---------- End Simulation Statistics   ----------
