
---------- Begin Simulation Statistics ----------
final_tick                                 1227070000                       # Number of ticks from beginning of simulation (restored from checkpoints and never reset)
host_inst_rate                                 174412                       # Simulator instruction rate (inst/s)
host_mem_usage                                4408884                       # Number of bytes of host memory used
host_op_rate                                   309218                       # Simulator op (including micro ops) rate (op/s)
host_seconds                                    13.64                       # Real time elapsed on the host
host_tick_rate                               89944944                       # Simulator tick rate (ticks/s)
sim_freq                                 1000000000000                       # Frequency of simulated ticks
sim_insts                                     2379399                       # Number of instructions simulated
sim_ops                                       4218491                       # Number of ops (including micro ops) simulated
sim_seconds                                  0.001227                       # Number of seconds simulated
sim_ticks                                  1227070000                       # Number of ticks simulated
system.cpu.branchPred.BTBCorrect                    0                       # Number of correct BTB predictions (this stat may not work properly.
system.cpu.branchPred.BTBHitPct              0.000000                       # BTB Hit Percentage
system.cpu.branchPred.BTBHits                       0                       # Number of BTB hits
system.cpu.branchPred.BTBLookups               512491                       # Number of BTB lookups
system.cpu.branchPred.RASInCorrect                 29                       # Number of incorrect RAS predictions.
system.cpu.branchPred.condIncorrect             26617                       # Number of conditional branches incorrect
system.cpu.branchPred.condPredicted            532646                       # Number of conditional branches predicted
system.cpu.branchPred.indirectHits             277239                       # Number of indirect target hits.
system.cpu.branchPred.indirectLookups          512491                       # Number of indirect predictor lookups.
system.cpu.branchPred.indirectMisses           235252                       # Number of indirect misses.
system.cpu.branchPred.lookups                  575396                       # Number of BP lookups
system.cpu.branchPred.usedRAS                   19592                       # Number of times the RAS was used to get a target.
system.cpu.branchPredindirectMispredicted        14219                       # Number of mispredicted indirect branches.
system.cpu.cc_regfile_reads                   2658400                       # number of cc regfile reads
system.cpu.cc_regfile_writes                  2071274                       # number of cc regfile writes
system.cpu.commit.amos                              0                       # Number of atomic instructions committed
system.cpu.commit.branchMispredicts             26719                       # The number of times a branch was mispredicted
system.cpu.commit.branches                     422629                       # Number of branches committed
system.cpu.commit.bw_lim_events                710064                       # number cycles where commit BW limit reached
system.cpu.commit.commitNonSpecStalls             864                       # The number of times commit has been forced to stall to communicate backwards
system.cpu.commit.commitSquashedInsts          932211                       # The number of squashed insts skipped by commit
system.cpu.commit.committedInsts              2379399                       # Number of instructions committed
system.cpu.commit.committedOps                4218491                       # Number of ops (including micro ops) committed
system.cpu.commit.committed_per_cycle::samples      2643684                       # Number of insts commited each cycle
system.cpu.commit.committed_per_cycle::mean     1.595687                       # Number of insts commited each cycle
system.cpu.commit.committed_per_cycle::stdev     1.735895                       # Number of insts commited each cycle
system.cpu.commit.committed_per_cycle::underflows            0      0.00%      0.00% # Number of insts commited each cycle
system.cpu.commit.committed_per_cycle::0      1271544     48.10%     48.10% # Number of insts commited each cycle
system.cpu.commit.committed_per_cycle::1       208971      7.90%     56.00% # Number of insts commited each cycle
system.cpu.commit.committed_per_cycle::2       190051      7.19%     63.19% # Number of insts commited each cycle
system.cpu.commit.committed_per_cycle::3       263054      9.95%     73.14% # Number of insts commited each cycle
system.cpu.commit.committed_per_cycle::4       710064     26.86%    100.00% # Number of insts commited each cycle
system.cpu.commit.committed_per_cycle::overflows            0      0.00%    100.00% # Number of insts commited each cycle
system.cpu.commit.committed_per_cycle::min_value            0                       # Number of insts commited each cycle
system.cpu.commit.committed_per_cycle::max_value            4                       # Number of insts commited each cycle
system.cpu.commit.committed_per_cycle::total      2643684                       # Number of insts commited each cycle
system.cpu.commit.fp_insts                      75825                       # Number of committed floating point instructions.
system.cpu.commit.function_calls                17725                       # Number of function calls committed.
system.cpu.commit.int_insts                   4162331                       # Number of committed integer instructions.
system.cpu.commit.loads                        601840                       # Number of loads committed
system.cpu.commit.membars                           1                       # Number of memory barriers committed
system.cpu.commit.op_class_0::No_OpClass        20844      0.49%      0.49% # Class of committed instruction
system.cpu.commit.op_class_0::IntAlu          3291438     78.02%     78.52% # Class of committed instruction
system.cpu.commit.op_class_0::IntMult            1053      0.02%     78.54% # Class of committed instruction
system.cpu.commit.op_class_0::IntDiv            38203      0.91%     79.45% # Class of committed instruction
system.cpu.commit.op_class_0::FloatAdd           2996      0.07%     79.52% # Class of committed instruction
system.cpu.commit.op_class_0::FloatCmp              0      0.00%     79.52% # Class of committed instruction
system.cpu.commit.op_class_0::FloatCvt           1376      0.03%     79.55% # Class of committed instruction
system.cpu.commit.op_class_0::FloatMult             0      0.00%     79.55% # Class of committed instruction
system.cpu.commit.op_class_0::FloatMultAcc            0      0.00%     79.55% # Class of committed instruction
system.cpu.commit.op_class_0::FloatDiv              0      0.00%     79.55% # Class of committed instruction
system.cpu.commit.op_class_0::FloatMisc             0      0.00%     79.55% # Class of committed instruction
system.cpu.commit.op_class_0::FloatSqrt             0      0.00%     79.55% # Class of committed instruction
system.cpu.commit.op_class_0::SimdAdd            6346      0.15%     79.70% # Class of committed instruction
system.cpu.commit.op_class_0::SimdAddAcc            0      0.00%     79.70% # Class of committed instruction
system.cpu.commit.op_class_0::SimdAlu           11415      0.27%     79.97% # Class of committed instruction
system.cpu.commit.op_class_0::SimdCmp               0      0.00%     79.97% # Class of committed instruction
system.cpu.commit.op_class_0::SimdCvt           12434      0.29%     80.27% # Class of committed instruction
system.cpu.commit.op_class_0::SimdMisc           6715      0.16%     80.43% # Class of committed instruction
system.cpu.commit.op_class_0::SimdMult              0      0.00%     80.43% # Class of committed instruction
system.cpu.commit.op_class_0::SimdMultAcc            0      0.00%     80.43% # Class of committed instruction
system.cpu.commit.op_class_0::SimdShift          1273      0.03%     80.46% # Class of committed instruction
system.cpu.commit.op_class_0::SimdShiftAcc            0      0.00%     80.46% # Class of committed instruction
system.cpu.commit.op_class_0::SimdDiv               0      0.00%     80.46% # Class of committed instruction
system.cpu.commit.op_class_0::SimdSqrt              0      0.00%     80.46% # Class of committed instruction
system.cpu.commit.op_class_0::SimdFloatAdd            0      0.00%     80.46% # Class of committed instruction
system.cpu.commit.op_class_0::SimdFloatAlu            0      0.00%     80.46% # Class of committed instruction
system.cpu.commit.op_class_0::SimdFloatCmp            0      0.00%     80.46% # Class of committed instruction
system.cpu.commit.op_class_0::SimdFloatCvt            0      0.00%     80.46% # Class of committed instruction
system.cpu.commit.op_class_0::SimdFloatDiv            0      0.00%     80.46% # Class of committed instruction
system.cpu.commit.op_class_0::SimdFloatMisc            0      0.00%     80.46% # Class of committed instruction
system.cpu.commit.op_class_0::SimdFloatMult            0      0.00%     80.46% # Class of committed instruction
system.cpu.commit.op_class_0::SimdFloatMultAcc            0      0.00%     80.46% # Class of committed instruction
system.cpu.commit.op_class_0::SimdFloatSqrt            0      0.00%     80.46% # Class of committed instruction
system.cpu.commit.op_class_0::SimdReduceAdd            0      0.00%     80.46% # Class of committed instruction
system.cpu.commit.op_class_0::SimdReduceAlu            0      0.00%     80.46% # Class of committed instruction
system.cpu.commit.op_class_0::SimdReduceCmp            0      0.00%     80.46% # Class of committed instruction
system.cpu.commit.op_class_0::SimdFloatReduceAdd            0      0.00%     80.46% # Class of committed instruction
system.cpu.commit.op_class_0::SimdFloatReduceCmp            0      0.00%     80.46% # Class of committed instruction
system.cpu.commit.op_class_0::SimdAes               0      0.00%     80.46% # Class of committed instruction
system.cpu.commit.op_class_0::SimdAesMix            0      0.00%     80.46% # Class of committed instruction
system.cpu.commit.op_class_0::SimdSha1Hash            0      0.00%     80.46% # Class of committed instruction
system.cpu.commit.op_class_0::SimdSha1Hash2            0      0.00%     80.46% # Class of committed instruction
system.cpu.commit.op_class_0::SimdSha256Hash            0      0.00%     80.46% # Class of committed instruction
system.cpu.commit.op_class_0::SimdSha256Hash2            0      0.00%     80.46% # Class of committed instruction
system.cpu.commit.op_class_0::SimdShaSigma2            0      0.00%     80.46% # Class of committed instruction
system.cpu.commit.op_class_0::SimdShaSigma3            0      0.00%     80.46% # Class of committed instruction
system.cpu.commit.op_class_0::SimdPredAlu            0      0.00%     80.46% # Class of committed instruction
system.cpu.commit.op_class_0::MemRead          581952     13.80%     94.25% # Class of committed instruction
system.cpu.commit.op_class_0::MemWrite         210059      4.98%     99.23% # Class of committed instruction
system.cpu.commit.op_class_0::FloatMemRead        19888      0.47%     99.70% # Class of committed instruction
system.cpu.commit.op_class_0::FloatMemWrite        12499      0.30%    100.00% # Class of committed instruction
system.cpu.commit.op_class_0::IprAccess             0      0.00%    100.00% # Class of committed instruction
system.cpu.commit.op_class_0::InstPrefetch            0      0.00%    100.00% # Class of committed instruction
system.cpu.commit.op_class_0::total           4218491                       # Class of committed instruction
system.cpu.commit.refs                         824398                       # Number of memory references committed
system.cpu.commit.swp_count                         0                       # Number of s/w prefetches committed
system.cpu.commit.vec_insts                         0                       # Number of committed Vector instructions.
system.cpu.committedInsts                     2379399                       # Number of Instructions Simulated
system.cpu.committedOps                       4218491                       # Number of Ops (including micro ops) Simulated
system.cpu.cpi                               1.289265                       # CPI: Cycles Per Instruction
system.cpu.cpi_total                         1.289265                       # CPI: Total CPI of All Threads
system.cpu.dcache.prefetcher.num_hwpf_issued         7713                       # number of hwpf issued
system.cpu.dcache.prefetcher.pfBufferHit        32739                       # number of redundant prefetches already in prefetch queue
system.cpu.dcache.prefetcher.pfIdentified        47107                       # number of prefetch candidates identified
system.cpu.dcache.prefetcher.pfInCache              0                       # number of redundant prefetches already in cache/mshr dropped
system.cpu.dcache.prefetcher.pfRemovedFull            0                       # number of prefetches dropped due to prefetch queue size
system.cpu.dcache.prefetcher.pfSpanPage          4141                       # number of prefetches that crossed the page
system.cpu.decode.BlockedCycles               1043107                       # Number of cycles decode is blocked
system.cpu.decode.DecodedInsts                5383221                       # Number of instructions handled by decode
system.cpu.decode.IdleCycles                   405508                       # Number of cycles decode is idle
system.cpu.decode.RunCycles                   1334430                       # Number of cycles decode is running
system.cpu.decode.SquashCycles                  26784                       # Number of cycles decode is squashing
system.cpu.decode.UnblockCycles                 89012                       # Number of cycles decode is unblocking
system.cpu.dtb.rdAccesses                      687295                       # TLB accesses on read requests
system.cpu.dtb.rdMisses                          2047                       # TLB misses on read requests
system.cpu.dtb.wrAccesses                      242507                       # TLB accesses on write requests
system.cpu.dtb.wrMisses                           166                       # TLB misses on write requests
system.cpu.fetch.Branches                      575396                       # Number of branches that fetch encountered
system.cpu.fetch.CacheLines                    299051                       # Number of cache lines fetched
system.cpu.fetch.Cycles                       2428555                       # Number of cycles fetch has run and was not squashing or blocked
system.cpu.fetch.IcacheSquashes                  6053                       # Number of outstanding Icache misses that were squashed
system.cpu.fetch.IcacheWaitRetryStallCycles           10                       # Number of stall cycles due to full MSHR
system.cpu.fetch.Insts                        3177565                       # Number of instructions fetch has processed
system.cpu.fetch.MiscStallCycles                  145                       # Number of cycles fetch has spent waiting on interrupts, or bad addresses, or out of MSHRs
system.cpu.fetch.PendingQuiesceStallCycles            8                       # Number of stall cycles due to pending quiesce instructions
system.cpu.fetch.PendingTrapStallCycles           688                       # Number of stall cycles due to pending traps
system.cpu.fetch.SquashCycles                   53568                       # Number of cycles fetch has spent squashing
system.cpu.fetch.branchRate                  0.187567                       # Number of branch fetches per cycle
system.cpu.fetch.icacheStallCycles             442651                       # Number of cycles fetch is stalled on an Icache miss
system.cpu.fetch.predictedBranches             296831                       # Number of branches that fetch has predicted taken
system.cpu.fetch.rate                        1.035822                       # Number of inst fetches per cycle
system.cpu.fetch.rateDist::samples            2898841                       # Number of instructions fetched each cycle (Total)
system.cpu.fetch.rateDist::mean              1.955962                       # Number of instructions fetched each cycle (Total)
system.cpu.fetch.rateDist::stdev             1.923963                       # Number of instructions fetched each cycle (Total)
system.cpu.fetch.rateDist::underflows               0      0.00%      0.00% # Number of instructions fetched each cycle (Total)
system.cpu.fetch.rateDist::0                  1352859     46.67%     46.67% # Number of instructions fetched each cycle (Total)
system.cpu.fetch.rateDist::1                    89551      3.09%     49.76% # Number of instructions fetched each cycle (Total)
system.cpu.fetch.rateDist::2                    72558      2.50%     52.26% # Number of instructions fetched each cycle (Total)
system.cpu.fetch.rateDist::3                   100136      3.45%     55.72% # Number of instructions fetched each cycle (Total)
system.cpu.fetch.rateDist::4                  1283737     44.28%    100.00% # Number of instructions fetched each cycle (Total)
system.cpu.fetch.rateDist::overflows                0      0.00%    100.00% # Number of instructions fetched each cycle (Total)
system.cpu.fetch.rateDist::min_value                0                       # Number of instructions fetched each cycle (Total)
system.cpu.fetch.rateDist::max_value                4                       # Number of instructions fetched each cycle (Total)
system.cpu.fetch.rateDist::total              2898841                       # Number of instructions fetched each cycle (Total)
system.cpu.fp_regfile_reads                    123276                       # number of floating regfile reads
system.cpu.fp_regfile_writes                    68107                       # number of floating regfile writes
system.cpu.fuPool.fu_ticks_busy::IntALU(0)    249532000                       # Total ticks fu was busy
system.cpu.fuPool.fu_ticks_busy::IntALU(1)    249532000                       # Total ticks fu was busy
system.cpu.fuPool.fu_ticks_busy::IntALU(2)    249532000                       # Total ticks fu was busy
system.cpu.fuPool.fu_ticks_busy::IntALU(3)    249532000                       # Total ticks fu was busy
system.cpu.fuPool.fu_ticks_busy::IntALU(4)    249532000                       # Total ticks fu was busy
system.cpu.fuPool.fu_ticks_busy::IntALU(5)    249532000                       # Total ticks fu was busy
system.cpu.fuPool.fu_ticks_busy::IntMultDiv(0)      8664800                       # Total ticks fu was busy
system.cpu.fuPool.fu_ticks_busy::IntMultDiv(1)      8664400                       # Total ticks fu was busy
system.cpu.fuPool.fu_ticks_busy::FP_ALU(0)       605600                       # Total ticks fu was busy
system.cpu.fuPool.fu_ticks_busy::FP_ALU(1)       605200                       # Total ticks fu was busy
system.cpu.fuPool.fu_ticks_busy::FP_ALU(2)       604800                       # Total ticks fu was busy
system.cpu.fuPool.fu_ticks_busy::FP_ALU(3)       604800                       # Total ticks fu was busy
system.cpu.fuPool.fu_ticks_busy::FP_MultDiv(0)            0                       # Total ticks fu was busy
system.cpu.fuPool.fu_ticks_busy::FP_MultDiv(1)            0                       # Total ticks fu was busy
system.cpu.fuPool.fu_ticks_busy::SIMD_Unit(0)      4706000                       # Total ticks fu was busy
system.cpu.fuPool.fu_ticks_busy::SIMD_Unit(1)      4499600                       # Total ticks fu was busy
system.cpu.fuPool.fu_ticks_busy::SIMD_Unit(2)      4522000                       # Total ticks fu was busy
system.cpu.fuPool.fu_ticks_busy::SIMD_Unit(3)      4731600                       # Total ticks fu was busy
system.cpu.fuPool.fu_ticks_busy::PredALU(0)            0                       # Total ticks fu was busy
system.cpu.fuPool.fu_ticks_busy::RdWrPort(0)     94699600                       # Total ticks fu was busy
system.cpu.fuPool.fu_ticks_busy::RdWrPort(1)     94601200                       # Total ticks fu was busy
system.cpu.fuPool.fu_ticks_busy::RdWrPort(2)     94661200                       # Total ticks fu was busy
system.cpu.fuPool.fu_ticks_busy::RdWrPort(3)     94691200                       # Total ticks fu was busy
system.cpu.fuPool.fu_ticks_busy::IprPort(0)            0                       # Total ticks fu was busy
system.cpu.fuPool.fu_ticks_busy::total     1914054000                       # Total ticks fu was busy
system.cpu.icache.prefetcher.num_hwpf_issued            0                       # number of hwpf issued
system.cpu.icache.prefetcher.pfBufferHit            0                       # number of redundant prefetches already in prefetch queue
system.cpu.icache.prefetcher.pfIdentified            0                       # number of prefetch candidates identified
system.cpu.icache.prefetcher.pfInCache              0                       # number of redundant prefetches already in cache/mshr dropped
system.cpu.icache.prefetcher.pfRemovedFull            0                       # number of prefetches dropped due to prefetch queue size
system.cpu.icache.prefetcher.pfSpanPage             0                       # number of prefetches that crossed the page
system.cpu.idleCycles                          168835                       # Total number of cycles that the CPU has spent unscheduled due to idling
system.cpu.iew.branchMispredicts                31223                       # Number of branch mispredicts detected at execute
system.cpu.iew.exec_branches                   453923                       # Number of branches executed
system.cpu.iew.exec_nop                             0                       # number of nop insts executed
system.cpu.iew.exec_rate                     1.555781                       # Inst execution rate
system.cpu.iew.exec_refs                       931412                       # number of memory reference insts executed
system.cpu.iew.exec_stores                     242491                       # Number of stores executed
system.cpu.iew.exec_swp                             0                       # number of swp insts executed
system.cpu.iew.iewBlockCycles                  715033                       # Number of cycles IEW is blocking
system.cpu.iew.iewDispLoadInsts                724398                       # Number of dispatched load instructions
system.cpu.iew.iewDispNonSpecInsts               1728                       # Number of dispatched non-speculative instructions
system.cpu.iew.iewDispSquashedInsts               637                       # Number of squashed instructions skipped by dispatch
system.cpu.iew.iewDispStoreInsts               256217                       # Number of dispatched store instructions
system.cpu.iew.iewDispatchedInsts             5150651                       # Number of instructions dispatched to IQ
system.cpu.iew.iewExecLoadInsts                688921                       # Number of load instructions executed
system.cpu.iew.iewExecSquashedInsts             40351                       # Number of squashed instructions skipped in execute
system.cpu.iew.iewExecutedInsts               4772633                       # Number of executed instructions
system.cpu.iew.iewIQFullEvents                   3357                       # Number of times the IQ has become full, causing a stall
system.cpu.iew.iewIdleCycles                        0                       # Number of cycles IEW is idle
system.cpu.iew.iewLSQFullEvents                  9150                       # Number of times the LSQ has become full, causing a stall
system.cpu.iew.iewSquashCycles                  26784                       # Number of cycles IEW is squashing
system.cpu.iew.iewUnblockCycles                 15396                       # Number of cycles IEW is unblocking
system.cpu.iew.lsq.thread0.blockedLoads             0                       # Number of blocked loads due to partial load-store forwarding
system.cpu.iew.lsq.thread0.cacheBlocked           575                       # Number of times an access to memory failed due to the cache being blocked
system.cpu.iew.lsq.thread0.forwLoads            42703                       # Number of loads that had data forwarded from stores
system.cpu.iew.lsq.thread0.ignoredResponses          240                       # Number of memory responses ignored because the instruction is squashed
system.cpu.iew.lsq.thread0.invAddrLoads             0                       # Number of loads ignored due to an invalid address
system.cpu.iew.lsq.thread0.invAddrSwpfs             0                       # Number of software prefetches ignored due to an invalid address
system.cpu.iew.lsq.thread0.memOrderViolation           72                       # Number of memory ordering violations
system.cpu.iew.lsq.thread0.rescheduledLoads            0                       # Number of loads that were rescheduled
system.cpu.iew.lsq.thread0.squashedLoads       122556                       # Number of loads squashed
system.cpu.iew.lsq.thread0.squashedStores        33658                       # Number of stores squashed
system.cpu.iew.memOrderViolationEvents             72                       # Number of memory order violations
system.cpu.iew.predictedNotTakenIncorrect        22868                       # Number of branches that were predicted not taken incorrectly
system.cpu.iew.predictedTakenIncorrect           8355                       # Number of branches that were predicted taken incorrectly
system.cpu.iew.wb_consumers                   6413080                       # num instructions consuming a value
system.cpu.iew.wb_count                       4749217                       # cumulative count of insts written-back
system.cpu.iew.wb_fanout                     0.577329                       # average fanout of values written-back
system.cpu.iew.wb_producers                   3702456                       # num instructions producing a value
system.cpu.iew.wb_rate                       1.548148                       # insts written-back per cycle
system.cpu.iew.wb_sent                        4756805                       # cumulative count of insts sent to commit
system.cpu.int_regfile_reads                  7388294                       # number of integer regfile reads
system.cpu.int_regfile_writes                 4061462                       # number of integer regfile writes
system.cpu.ipc                               0.775636                       # IPC: Instructions Per Cycle
system.cpu.ipc_total                         0.775636                       # IPC: Total IPC of All Threads
system.cpu.iq.FU_type_0::No_OpClass             27849      0.58%      0.58% # Type of FU issued
system.cpu.iq.FU_type_0::IntAlu               3742981     77.77%     78.35% # Type of FU issued
system.cpu.iq.FU_type_0::IntMult                 1079      0.02%     78.37% # Type of FU issued
system.cpu.iq.FU_type_0::IntDiv                 42244      0.88%     79.25% # Type of FU issued
system.cpu.iq.FU_type_0::FloatAdd                4621      0.10%     79.34% # Type of FU issued
system.cpu.iq.FU_type_0::FloatCmp                   0      0.00%     79.34% # Type of FU issued
system.cpu.iq.FU_type_0::FloatCvt                1430      0.03%     79.37% # Type of FU issued
system.cpu.iq.FU_type_0::FloatMult                  0      0.00%     79.37% # Type of FU issued
system.cpu.iq.FU_type_0::FloatMultAcc               0      0.00%     79.37% # Type of FU issued
system.cpu.iq.FU_type_0::FloatDiv                   0      0.00%     79.37% # Type of FU issued
system.cpu.iq.FU_type_0::FloatMisc                  0      0.00%     79.37% # Type of FU issued
system.cpu.iq.FU_type_0::FloatSqrt                  0      0.00%     79.37% # Type of FU issued
system.cpu.iq.FU_type_0::SimdAdd                 6968      0.14%     79.52% # Type of FU issued
system.cpu.iq.FU_type_0::SimdAddAcc                 0      0.00%     79.52% # Type of FU issued
system.cpu.iq.FU_type_0::SimdAlu                15271      0.32%     79.83% # Type of FU issued
system.cpu.iq.FU_type_0::SimdCmp                    0      0.00%     79.83% # Type of FU issued
system.cpu.iq.FU_type_0::SimdCvt                14156      0.29%     80.13% # Type of FU issued
system.cpu.iq.FU_type_0::SimdMisc                7290      0.15%     80.28% # Type of FU issued
system.cpu.iq.FU_type_0::SimdMult                   0      0.00%     80.28% # Type of FU issued
system.cpu.iq.FU_type_0::SimdMultAcc                0      0.00%     80.28% # Type of FU issued
system.cpu.iq.FU_type_0::SimdShift               2463      0.05%     80.33% # Type of FU issued
system.cpu.iq.FU_type_0::SimdShiftAcc               0      0.00%     80.33% # Type of FU issued
system.cpu.iq.FU_type_0::SimdDiv                    0      0.00%     80.33% # Type of FU issued
system.cpu.iq.FU_type_0::SimdSqrt                   0      0.00%     80.33% # Type of FU issued
system.cpu.iq.FU_type_0::SimdFloatAdd               0      0.00%     80.33% # Type of FU issued
system.cpu.iq.FU_type_0::SimdFloatAlu               0      0.00%     80.33% # Type of FU issued
system.cpu.iq.FU_type_0::SimdFloatCmp               0      0.00%     80.33% # Type of FU issued
system.cpu.iq.FU_type_0::SimdFloatCvt               0      0.00%     80.33% # Type of FU issued
system.cpu.iq.FU_type_0::SimdFloatDiv               0      0.00%     80.33% # Type of FU issued
system.cpu.iq.FU_type_0::SimdFloatMisc              0      0.00%     80.33% # Type of FU issued
system.cpu.iq.FU_type_0::SimdFloatMult              0      0.00%     80.33% # Type of FU issued
system.cpu.iq.FU_type_0::SimdFloatMultAcc            0      0.00%     80.33% # Type of FU issued
system.cpu.iq.FU_type_0::SimdFloatSqrt              0      0.00%     80.33% # Type of FU issued
system.cpu.iq.FU_type_0::SimdReduceAdd              0      0.00%     80.33% # Type of FU issued
system.cpu.iq.FU_type_0::SimdReduceAlu              0      0.00%     80.33% # Type of FU issued
system.cpu.iq.FU_type_0::SimdReduceCmp              0      0.00%     80.33% # Type of FU issued
system.cpu.iq.FU_type_0::SimdFloatReduceAdd            0      0.00%     80.33% # Type of FU issued
system.cpu.iq.FU_type_0::SimdFloatReduceCmp            0      0.00%     80.33% # Type of FU issued
system.cpu.iq.FU_type_0::SimdAes                    0      0.00%     80.33% # Type of FU issued
system.cpu.iq.FU_type_0::SimdAesMix                 0      0.00%     80.33% # Type of FU issued
system.cpu.iq.FU_type_0::SimdSha1Hash               0      0.00%     80.33% # Type of FU issued
system.cpu.iq.FU_type_0::SimdSha1Hash2              0      0.00%     80.33% # Type of FU issued
system.cpu.iq.FU_type_0::SimdSha256Hash             0      0.00%     80.33% # Type of FU issued
system.cpu.iq.FU_type_0::SimdSha256Hash2            0      0.00%     80.33% # Type of FU issued
system.cpu.iq.FU_type_0::SimdShaSigma2              0      0.00%     80.33% # Type of FU issued
system.cpu.iq.FU_type_0::SimdShaSigma3              0      0.00%     80.33% # Type of FU issued
system.cpu.iq.FU_type_0::SimdPredAlu                0      0.00%     80.33% # Type of FU issued
system.cpu.iq.FU_type_0::MemRead               674624     14.02%     94.35% # Type of FU issued
system.cpu.iq.FU_type_0::MemWrite              232084      4.82%     99.17% # Type of FU issued
system.cpu.iq.FU_type_0::FloatMemRead           26148      0.54%     99.71% # Type of FU issued
system.cpu.iq.FU_type_0::FloatMemWrite          13779      0.29%    100.00% # Type of FU issued
system.cpu.iq.FU_type_0::IprAccess                  0      0.00%    100.00% # Type of FU issued
system.cpu.iq.FU_type_0::InstPrefetch               0      0.00%    100.00% # Type of FU issued
system.cpu.iq.FU_type_0::total                4812987                       # Type of FU issued
system.cpu.iq.fp_alu_accesses                   93209                       # Number of floating point alu accesses
system.cpu.iq.fp_inst_queue_reads              187802                       # Number of floating instruction queue reads
system.cpu.iq.fp_inst_queue_wakeup_accesses        89527                       # Number of floating instruction queue wakeup accesses
system.cpu.iq.fp_inst_queue_writes             137195                       # Number of floating instruction queue writes
system.cpu.iq.fu_busy_cnt                           0                       # FU busy when requested
system.cpu.iq.fu_busy_rate                          0                       # FU busy rate (busy events/executed inst)
system.cpu.iq.fu_full::No_OpClass                   0                       # attempts to use FU when none available
system.cpu.iq.fu_full::IntAlu                       0                       # attempts to use FU when none available
system.cpu.iq.fu_full::IntMult                      0                       # attempts to use FU when none available
system.cpu.iq.fu_full::IntDiv                       0                       # attempts to use FU when none available
system.cpu.iq.fu_full::FloatAdd                     0                       # attempts to use FU when none available
system.cpu.iq.fu_full::FloatCmp                     0                       # attempts to use FU when none available
system.cpu.iq.fu_full::FloatCvt                     0                       # attempts to use FU when none available
system.cpu.iq.fu_full::FloatMult                    0                       # attempts to use FU when none available
system.cpu.iq.fu_full::FloatMultAcc                 0                       # attempts to use FU when none available
system.cpu.iq.fu_full::FloatDiv                     0                       # attempts to use FU when none available
system.cpu.iq.fu_full::FloatMisc                    0                       # attempts to use FU when none available
system.cpu.iq.fu_full::FloatSqrt                    0                       # attempts to use FU when none available
system.cpu.iq.fu_full::SimdAdd                      0                       # attempts to use FU when none available
system.cpu.iq.fu_full::SimdAddAcc                   0                       # attempts to use FU when none available
system.cpu.iq.fu_full::SimdAlu                      0                       # attempts to use FU when none available
system.cpu.iq.fu_full::SimdCmp                      0                       # attempts to use FU when none available
system.cpu.iq.fu_full::SimdCvt                      0                       # attempts to use FU when none available
system.cpu.iq.fu_full::SimdMisc                     0                       # attempts to use FU when none available
system.cpu.iq.fu_full::SimdMult                     0                       # attempts to use FU when none available
system.cpu.iq.fu_full::SimdMultAcc                  0                       # attempts to use FU when none available
system.cpu.iq.fu_full::SimdShift                    0                       # attempts to use FU when none available
system.cpu.iq.fu_full::SimdShiftAcc                 0                       # attempts to use FU when none available
system.cpu.iq.fu_full::SimdDiv                      0                       # attempts to use FU when none available
system.cpu.iq.fu_full::SimdSqrt                     0                       # attempts to use FU when none available
system.cpu.iq.fu_full::SimdFloatAdd                 0                       # attempts to use FU when none available
system.cpu.iq.fu_full::SimdFloatAlu                 0                       # attempts to use FU when none available
system.cpu.iq.fu_full::SimdFloatCmp                 0                       # attempts to use FU when none available
system.cpu.iq.fu_full::SimdFloatCvt                 0                       # attempts to use FU when none available
system.cpu.iq.fu_full::SimdFloatDiv                 0                       # attempts to use FU when none available
system.cpu.iq.fu_full::SimdFloatMisc                0                       # attempts to use FU when none available
system.cpu.iq.fu_full::SimdFloatMult                0                       # attempts to use FU when none available
system.cpu.iq.fu_full::SimdFloatMultAcc             0                       # attempts to use FU when none available
system.cpu.iq.fu_full::SimdFloatSqrt                0                       # attempts to use FU when none available
system.cpu.iq.fu_full::SimdReduceAdd                0                       # attempts to use FU when none available
system.cpu.iq.fu_full::SimdReduceAlu                0                       # attempts to use FU when none available
system.cpu.iq.fu_full::SimdReduceCmp                0                       # attempts to use FU when none available
system.cpu.iq.fu_full::SimdFloatReduceAdd            0                       # attempts to use FU when none available
system.cpu.iq.fu_full::SimdFloatReduceCmp            0                       # attempts to use FU when none available
system.cpu.iq.fu_full::SimdAes                      0                       # attempts to use FU when none available
system.cpu.iq.fu_full::SimdAesMix                   0                       # attempts to use FU when none available
system.cpu.iq.fu_full::SimdSha1Hash                 0                       # attempts to use FU when none available
system.cpu.iq.fu_full::SimdSha1Hash2                0                       # attempts to use FU when none available
system.cpu.iq.fu_full::SimdSha256Hash               0                       # attempts to use FU when none available
system.cpu.iq.fu_full::SimdSha256Hash2              0                       # attempts to use FU when none available
system.cpu.iq.fu_full::SimdShaSigma2                0                       # attempts to use FU when none available
system.cpu.iq.fu_full::SimdShaSigma3                0                       # attempts to use FU when none available
system.cpu.iq.fu_full::SimdPredAlu                  0                       # attempts to use FU when none available
system.cpu.iq.fu_full::MemRead                      0                       # attempts to use FU when none available
system.cpu.iq.fu_full::MemWrite                     0                       # attempts to use FU when none available
system.cpu.iq.fu_full::FloatMemRead                 0                       # attempts to use FU when none available
system.cpu.iq.fu_full::FloatMemWrite                0                       # attempts to use FU when none available
system.cpu.iq.fu_full::IprAccess                    0                       # attempts to use FU when none available
system.cpu.iq.fu_full::InstPrefetch                 0                       # attempts to use FU when none available
system.cpu.iq.int_alu_accesses                4691929                       # Number of integer alu accesses
system.cpu.iq.int_inst_queue_reads           12355662                       # Number of integer instruction queue reads
system.cpu.iq.int_inst_queue_wakeup_accesses      4659690                       # Number of integer instruction queue wakeup accesses
system.cpu.iq.int_inst_queue_writes           5945677                       # Number of integer instruction queue writes
system.cpu.iq.iqInstsAdded                    5147419                       # Number of instructions added to the IQ (excludes non-spec)
system.cpu.iq.iqInstsIssued                   4812987                       # Number of instructions issued
system.cpu.iq.iqNonSpecInstsAdded                3232                       # Number of non-speculative instructions added to the IQ
system.cpu.iq.iqSquashedInstsExamined          932149                       # Number of squashed instructions iterated over during squash; mainly for profiling
system.cpu.iq.iqSquashedInstsIssued             18652                       # Number of squashed instructions issued
system.cpu.iq.iqSquashedNonSpecRemoved           2368                       # Number of squashed non-spec instructions that were removed
system.cpu.iq.iqSquashedOperandsExamined      1390421                       # Number of squashed operands that are examined and possibly removed from graph
system.cpu.iq.issued_per_cycle::samples       2898841                       # Number of insts issued each cycle
system.cpu.iq.issued_per_cycle::mean         1.660314                       # Number of insts issued each cycle
system.cpu.iq.issued_per_cycle::stdev        1.664687                       # Number of insts issued each cycle
system.cpu.iq.issued_per_cycle::underflows            0      0.00%      0.00% # Number of insts issued each cycle
system.cpu.iq.issued_per_cycle::0             1264027     43.60%     43.60% # Number of insts issued each cycle
system.cpu.iq.issued_per_cycle::1              206822      7.13%     50.74% # Number of insts issued each cycle
system.cpu.iq.issued_per_cycle::2              355105     12.25%     62.99% # Number of insts issued each cycle
system.cpu.iq.issued_per_cycle::3              395593     13.65%     76.64% # Number of insts issued each cycle
system.cpu.iq.issued_per_cycle::4              677294     23.36%    100.00% # Number of insts issued each cycle
system.cpu.iq.issued_per_cycle::overflows            0      0.00%    100.00% # Number of insts issued each cycle
system.cpu.iq.issued_per_cycle::min_value            0                       # Number of insts issued each cycle
system.cpu.iq.issued_per_cycle::max_value            4                       # Number of insts issued each cycle
system.cpu.iq.issued_per_cycle::total         2898841                       # Number of insts issued each cycle
system.cpu.iq.rate                           1.568936                       # Inst issue rate
system.cpu.iq.vec_alu_accesses                      0                       # Number of vector alu accesses
system.cpu.iq.vec_inst_queue_reads                  0                       # Number of vector instruction queue reads
system.cpu.iq.vec_inst_queue_wakeup_accesses            0                       # Number of vector instruction queue wakeup accesses
system.cpu.iq.vec_inst_queue_writes                 0                       # Number of vector instruction queue writes
system.cpu.itb.rdAccesses                           0                       # TLB accesses on read requests
system.cpu.itb.rdMisses                             0                       # TLB misses on read requests
system.cpu.itb.wrAccesses                      299171                       # TLB accesses on write requests
system.cpu.itb.wrMisses                           382                       # TLB misses on write requests
system.cpu.memDep0.conflictingLoads              8470                       # Number of conflicting loads.
system.cpu.memDep0.conflictingStores             4259                       # Number of conflicting stores.
system.cpu.memDep0.insertedLoads               724398                       # Number of loads inserted to the mem dependence unit.
system.cpu.memDep0.insertedStores              256217                       # Number of stores inserted to the mem dependence unit.
system.cpu.misc_regfile_reads                 1874168                       # number of misc regfile reads
system.cpu.misc_regfile_writes                    774                       # number of misc regfile writes
system.cpu.numCycles                          3067676                       # number of cpu cycles simulated
system.cpu.numWorkItemsCompleted                    0                       # number of work items this cpu completed
system.cpu.numWorkItemsStarted                      0                       # number of work items this cpu started
system.cpu.process.numSyscalls                     89                       # Number of system calls
system.cpu.rename.BlockCycles                  861147                       # Number of cycles rename is blocking
system.cpu.rename.CommittedMaps               5553303                       # Number of HB maps that are committed
system.cpu.rename.FullRegisterEvents               82                       # Number of times there has been no free registers
system.cpu.rename.IQFullEvents                  43354                       # Number of times rename has blocked due to IQ full
system.cpu.rename.IdleCycles                   456997                       # Number of cycles rename is idle
system.cpu.rename.LQFullEvents                  14411                       # Number of times rename has blocked due to LQ full
system.cpu.rename.ROBFullEvents                  4161                       # Number of times rename has blocked due to ROB full
system.cpu.rename.RenameLookups              13770212                       # Number of register rename lookups that rename has made
system.cpu.rename.RenamedInsts                5299356                       # Number of instructions processed by rename
system.cpu.rename.RenamedOperands             7000284                       # Number of destination operands rename has renamed
system.cpu.rename.RunCycles                   1363731                       # Number of cycles rename is running
system.cpu.rename.SQFullEvents                  73262                       # Number of times rename has blocked due to SQ full
system.cpu.rename.SquashCycles                  26784                       # Number of cycles rename is squashing
system.cpu.rename.UnblockCycles                168018                       # Number of cycles rename is unblocking
system.cpu.rename.UndoneMaps                  1446958                       # Number of HB maps that are undone due to squashing
system.cpu.rename.fp_rename_lookups            161515                       # Number of floating rename lookups
system.cpu.rename.int_rename_lookups          8382320                       # Number of integer rename lookups
system.cpu.rename.serializeStallCycles          22164                       # count of cycles rename stalled for serializing inst
system.cpu.rename.serializingInsts               1011                       # count of serializing insts renamed
system.cpu.rename.skidInsts                    200538                       # count of insts added to the skid buffer
system.cpu.rename.tempSerializingInsts           1070                       # count of temporary serializing insts renamed
system.cpu.rob.rob_reads                      7084322                       # The number of ROB reads
system.cpu.rob.rob_writes                    10557528                       # The number of ROB writes
system.cpu.timesIdled                            2789                       # Number of times that the entire CPU went into an idle state and unscheduled itself
system.l2bus.snoop_filter.hit_multi_requests           20                       # Number of requests hitting in the snoop filter with multiple (>1) holders of the requested data.
system.l2bus.snoop_filter.hit_multi_snoops            1                       # Number of snoops hitting in the snoop filter with multiple (>1) holders of the requested data.
system.l2bus.snoop_filter.hit_single_requests        20806                       # Number of requests hitting in the snoop filter with a single holder of the requested data.
system.l2bus.snoop_filter.hit_single_snoops          437                       # Number of snoops hitting in the snoop filter with a single holder of the requested data.
system.l2bus.snoop_filter.tot_requests          42880                       # Total number of requests made to the snoop filter.
system.l2bus.snoop_filter.tot_snoops              438                       # Total number of snoops made to the snoop filter.
system.l2cache.prefetcher.num_hwpf_issued          652                       # number of hwpf issued
system.l2cache.prefetcher.pfBufferHit               0                       # number of redundant prefetches already in prefetch queue
system.l2cache.prefetcher.pfIdentified            652                       # number of prefetch candidates identified
system.l2cache.prefetcher.pfInCache                 0                       # number of redundant prefetches already in cache/mshr dropped
system.l2cache.prefetcher.pfRemovedFull             0                       # number of prefetches dropped due to prefetch queue size
system.l2cache.prefetcher.pfSpanPage               92                       # number of prefetches that crossed the page
system.membus.snoop_filter.hit_multi_requests            0                       # Number of requests hitting in the snoop filter with multiple (>1) holders of the requested data.
system.membus.snoop_filter.hit_multi_snoops            0                       # Number of snoops hitting in the snoop filter with multiple (>1) holders of the requested data.
system.membus.snoop_filter.hit_single_requests         9528                       # Number of requests hitting in the snoop filter with a single holder of the requested data.
system.membus.snoop_filter.hit_single_snoops            0                       # Number of snoops hitting in the snoop filter with a single holder of the requested data.
system.membus.snoop_filter.tot_requests         23182                       # Total number of requests made to the snoop filter.
system.membus.snoop_filter.tot_snoops               0                       # Total number of snoops made to the snoop filter.
system.membus.pwrStateResidencyTicks::UNDEFINED   1227070000                       # Cumulative time (in ticks) in various power states
system.membus.trans_dist::ReadResp              12349                       # Transaction distribution
system.membus.trans_dist::WritebackDirty         1345                       # Transaction distribution
system.membus.trans_dist::CleanEvict             8183                       # Transaction distribution
system.membus.trans_dist::ReadExReq              1305                       # Transaction distribution
system.membus.trans_dist::ReadExResp             1305                       # Transaction distribution
system.membus.trans_dist::ReadSharedReq         12349                       # Transaction distribution
system.membus.pkt_count_system.l2cache.mem_side::system.mem_ctrl.port        36836                       # Packet count per connected master and slave (bytes)
system.membus.pkt_count_system.l2cache.mem_side::total        36836                       # Packet count per connected master and slave (bytes)
system.membus.pkt_count::total                  36836                       # Packet count per connected master and slave (bytes)
system.membus.pkt_size_system.l2cache.mem_side::system.mem_ctrl.port       959936                       # Cumulative packet size per connected master and slave (bytes)
system.membus.pkt_size_system.l2cache.mem_side::total       959936                       # Cumulative packet size per connected master and slave (bytes)
system.membus.pkt_size::total                  959936                       # Cumulative packet size per connected master and slave (bytes)
system.membus.snoops                                0                       # Total snoops (count)
system.membus.snoopTraffic                          0                       # Total snoop traffic (bytes)
system.membus.snoop_fanout::samples             13654                       # Request fanout histogram
system.membus.snoop_fanout::mean                    0                       # Request fanout histogram
system.membus.snoop_fanout::stdev                   0                       # Request fanout histogram
system.membus.snoop_fanout::underflows              0      0.00%      0.00% # Request fanout histogram
system.membus.snoop_fanout::0                   13654    100.00%    100.00% # Request fanout histogram
system.membus.snoop_fanout::1                       0      0.00%    100.00% # Request fanout histogram
system.membus.snoop_fanout::overflows               0      0.00%    100.00% # Request fanout histogram
system.membus.snoop_fanout::min_value               0                       # Request fanout histogram
system.membus.snoop_fanout::max_value               0                       # Request fanout histogram
system.membus.snoop_fanout::total               13654                       # Request fanout histogram
system.membus.reqLayer2.occupancy            11450151                       # Layer occupancy (ticks)
system.membus.reqLayer2.utilization               0.9                       # Layer utilization (%)
system.membus.respLayer0.occupancy           29655049                       # Layer occupancy (ticks)
system.membus.respLayer0.utilization              2.4                       # Layer utilization (%)
system.l2bus.pwrStateResidencyTicks::UNDEFINED   1227070000                       # Cumulative time (in ticks) in various power states
system.l2bus.trans_dist::ReadResp               20039                       # Transaction distribution
system.l2bus.trans_dist::WritebackDirty          4152                       # Transaction distribution
system.l2bus.trans_dist::CleanEvict             26266                       # Transaction distribution
system.l2bus.trans_dist::HardPFReq                922                       # Transaction distribution
system.l2bus.trans_dist::ReadExReq               2041                       # Transaction distribution
system.l2bus.trans_dist::ReadExResp              2041                       # Transaction distribution
system.l2bus.trans_dist::ReadSharedReq          20039                       # Transaction distribution
system.l2bus.pkt_count_system.cpu.icache.mem_side::system.l2cache.cpu_side        15285                       # Packet count per connected master and slave (bytes)
system.l2bus.pkt_count_system.cpu.dcache.mem_side::system.l2cache.cpu_side        49673                       # Packet count per connected master and slave (bytes)
system.l2bus.pkt_count::total                   64958                       # Packet count per connected master and slave (bytes)
system.l2bus.pkt_size_system.cpu.icache.mem_side::system.l2cache.cpu_side       331456                       # Cumulative packet size per connected master and slave (bytes)
system.l2bus.pkt_size_system.cpu.dcache.mem_side::system.l2cache.cpu_side      1261184                       # Cumulative packet size per connected master and slave (bytes)
system.l2bus.pkt_size::total                  1592640                       # Cumulative packet size per connected master and slave (bytes)
system.l2bus.snoops                             10542                       # Total snoops (count)
system.l2bus.snoopTraffic                       86208                       # Total snoop traffic (bytes)
system.l2bus.snoop_fanout::samples              32620                       # Request fanout histogram
system.l2bus.snoop_fanout::mean              0.014255                       # Request fanout histogram
system.l2bus.snoop_fanout::stdev             0.118801                       # Request fanout histogram
system.l2bus.snoop_fanout::underflows               0      0.00%      0.00% # Request fanout histogram
system.l2bus.snoop_fanout::0                    32156     98.58%     98.58% # Request fanout histogram
system.l2bus.snoop_fanout::1                      463      1.42%    100.00% # Request fanout histogram
system.l2bus.snoop_fanout::2                        1      0.00%    100.00% # Request fanout histogram
system.l2bus.snoop_fanout::overflows                0      0.00%    100.00% # Request fanout histogram
system.l2bus.snoop_fanout::min_value                0                       # Request fanout histogram
system.l2bus.snoop_fanout::max_value                2                       # Request fanout histogram
system.l2bus.snoop_fanout::total                32620                       # Request fanout histogram
system.l2bus.respLayer1.occupancy            20280396                       # Layer occupancy (ticks)
system.l2bus.respLayer1.utilization               1.7                       # Layer utilization (%)
system.l2bus.reqLayer0.occupancy             20776433                       # Layer occupancy (ticks)
system.l2bus.reqLayer0.utilization                1.7                       # Layer utilization (%)
system.l2bus.respLayer0.occupancy             6217599                       # Layer occupancy (ticks)
system.l2bus.respLayer0.utilization               0.5                       # Layer utilization (%)
system.clk_domain.clock                           400                       # Clock period in ticks
system.clk_domain.voltage_domain.voltage            1                       # Voltage in Volts
system.cpu.pwrStateResidencyTicks::ON      1227070000                       # Cumulative time (in ticks) in various power states
system.cpu.icache.pwrStateResidencyTicks::UNDEFINED   1227070000                       # Cumulative time (in ticks) in various power states
system.cpu.icache.demand_hits::.cpu.inst       293136                       # number of demand (read+write) hits
system.cpu.icache.demand_hits::total           293136                       # number of demand (read+write) hits
system.cpu.icache.overall_hits::.cpu.inst       293136                       # number of overall hits
system.cpu.icache.overall_hits::total          293136                       # number of overall hits
system.cpu.icache.demand_misses::.cpu.inst         5914                       # number of demand (read+write) misses
system.cpu.icache.demand_misses::total           5914                       # number of demand (read+write) misses
system.cpu.icache.overall_misses::.cpu.inst         5914                       # number of overall misses
system.cpu.icache.overall_misses::total          5914                       # number of overall misses
system.cpu.icache.demand_miss_latency::.cpu.inst    206805200                       # number of demand (read+write) miss cycles
system.cpu.icache.demand_miss_latency::total    206805200                       # number of demand (read+write) miss cycles
system.cpu.icache.overall_miss_latency::.cpu.inst    206805200                       # number of overall miss cycles
system.cpu.icache.overall_miss_latency::total    206805200                       # number of overall miss cycles
system.cpu.icache.demand_accesses::.cpu.inst       299050                       # number of demand (read+write) accesses
system.cpu.icache.demand_accesses::total       299050                       # number of demand (read+write) accesses
system.cpu.icache.overall_accesses::.cpu.inst       299050                       # number of overall (read+write) accesses
system.cpu.icache.overall_accesses::total       299050                       # number of overall (read+write) accesses
system.cpu.icache.demand_miss_rate::.cpu.inst     0.019776                       # miss rate for demand accesses
system.cpu.icache.demand_miss_rate::total     0.019776                       # miss rate for demand accesses
system.cpu.icache.overall_miss_rate::.cpu.inst     0.019776                       # miss rate for overall accesses
system.cpu.icache.overall_miss_rate::total     0.019776                       # miss rate for overall accesses
system.cpu.icache.demand_avg_miss_latency::.cpu.inst 34968.752114                       # average overall miss latency
system.cpu.icache.demand_avg_miss_latency::total 34968.752114                       # average overall miss latency
system.cpu.icache.overall_avg_miss_latency::.cpu.inst 34968.752114                       # average overall miss latency
system.cpu.icache.overall_avg_miss_latency::total 34968.752114                       # average overall miss latency
system.cpu.icache.blocked_cycles::no_mshrs          228                       # number of cycles access was blocked
system.cpu.icache.blocked_cycles::no_targets            0                       # number of cycles access was blocked
system.cpu.icache.blocked::no_mshrs                 6                       # number of cycles access was blocked
system.cpu.icache.blocked::no_targets               0                       # number of cycles access was blocked
system.cpu.icache.avg_blocked_cycles::no_mshrs           38                       # average number of cycles each access was blocked
system.cpu.icache.avg_blocked_cycles::no_targets          nan                       # average number of cycles each access was blocked
system.cpu.icache.demand_mshr_hits::.cpu.inst          733                       # number of demand (read+write) MSHR hits
system.cpu.icache.demand_mshr_hits::total          733                       # number of demand (read+write) MSHR hits
system.cpu.icache.overall_mshr_hits::.cpu.inst          733                       # number of overall MSHR hits
system.cpu.icache.overall_mshr_hits::total          733                       # number of overall MSHR hits
system.cpu.icache.demand_mshr_misses::.cpu.inst         5181                       # number of demand (read+write) MSHR misses
system.cpu.icache.demand_mshr_misses::total         5181                       # number of demand (read+write) MSHR misses
system.cpu.icache.overall_mshr_misses::.cpu.inst         5181                       # number of overall MSHR misses
system.cpu.icache.overall_mshr_misses::total         5181                       # number of overall MSHR misses
system.cpu.icache.demand_mshr_miss_latency::.cpu.inst    169274800                       # number of demand (read+write) MSHR miss cycles
system.cpu.icache.demand_mshr_miss_latency::total    169274800                       # number of demand (read+write) MSHR miss cycles
system.cpu.icache.overall_mshr_miss_latency::.cpu.inst    169274800                       # number of overall MSHR miss cycles
system.cpu.icache.overall_mshr_miss_latency::total    169274800                       # number of overall MSHR miss cycles
system.cpu.icache.demand_mshr_miss_rate::.cpu.inst     0.017325                       # mshr miss rate for demand accesses
system.cpu.icache.demand_mshr_miss_rate::total     0.017325                       # mshr miss rate for demand accesses
system.cpu.icache.overall_mshr_miss_rate::.cpu.inst     0.017325                       # mshr miss rate for overall accesses
system.cpu.icache.overall_mshr_miss_rate::total     0.017325                       # mshr miss rate for overall accesses
system.cpu.icache.demand_avg_mshr_miss_latency::.cpu.inst 32672.225439                       # average overall mshr miss latency
system.cpu.icache.demand_avg_mshr_miss_latency::total 32672.225439                       # average overall mshr miss latency
system.cpu.icache.overall_avg_mshr_miss_latency::.cpu.inst 32672.225439                       # average overall mshr miss latency
system.cpu.icache.overall_avg_mshr_miss_latency::total 32672.225439                       # average overall mshr miss latency
system.cpu.icache.replacements                   4925                       # number of replacements
system.cpu.icache.ReadReq_hits::.cpu.inst       293136                       # number of ReadReq hits
system.cpu.icache.ReadReq_hits::total          293136                       # number of ReadReq hits
system.cpu.icache.ReadReq_misses::.cpu.inst         5914                       # number of ReadReq misses
system.cpu.icache.ReadReq_misses::total          5914                       # number of ReadReq misses
system.cpu.icache.ReadReq_miss_latency::.cpu.inst    206805200                       # number of ReadReq miss cycles
system.cpu.icache.ReadReq_miss_latency::total    206805200                       # number of ReadReq miss cycles
system.cpu.icache.ReadReq_accesses::.cpu.inst       299050                       # number of ReadReq accesses(hits+misses)
system.cpu.icache.ReadReq_accesses::total       299050                       # number of ReadReq accesses(hits+misses)
system.cpu.icache.ReadReq_miss_rate::.cpu.inst     0.019776                       # miss rate for ReadReq accesses
system.cpu.icache.ReadReq_miss_rate::total     0.019776                       # miss rate for ReadReq accesses
system.cpu.icache.ReadReq_avg_miss_latency::.cpu.inst 34968.752114                       # average ReadReq miss latency
system.cpu.icache.ReadReq_avg_miss_latency::total 34968.752114                       # average ReadReq miss latency
system.cpu.icache.ReadReq_mshr_hits::.cpu.inst          733                       # number of ReadReq MSHR hits
system.cpu.icache.ReadReq_mshr_hits::total          733                       # number of ReadReq MSHR hits
system.cpu.icache.ReadReq_mshr_misses::.cpu.inst         5181                       # number of ReadReq MSHR misses
system.cpu.icache.ReadReq_mshr_misses::total         5181                       # number of ReadReq MSHR misses
system.cpu.icache.ReadReq_mshr_miss_latency::.cpu.inst    169274800                       # number of ReadReq MSHR miss cycles
system.cpu.icache.ReadReq_mshr_miss_latency::total    169274800                       # number of ReadReq MSHR miss cycles
system.cpu.icache.ReadReq_mshr_miss_rate::.cpu.inst     0.017325                       # mshr miss rate for ReadReq accesses
system.cpu.icache.ReadReq_mshr_miss_rate::total     0.017325                       # mshr miss rate for ReadReq accesses
system.cpu.icache.ReadReq_avg_mshr_miss_latency::.cpu.inst 32672.225439                       # average ReadReq mshr miss latency
system.cpu.icache.ReadReq_avg_mshr_miss_latency::total 32672.225439                       # average ReadReq mshr miss latency
system.cpu.icache.prefetcher.pwrStateResidencyTicks::UNDEFINED   1227070000                       # Cumulative time (in ticks) in various power states
system.cpu.icache.tags.pwrStateResidencyTicks::UNDEFINED   1227070000                       # Cumulative time (in ticks) in various power states
system.cpu.icache.tags.tagsinuse           253.763485                       # Cycle average of tags in use
system.cpu.icache.tags.total_refs              250470                       # Total number of references to valid blocks.
system.cpu.icache.tags.sampled_refs              4925                       # Sample count of references to valid blocks.
system.cpu.icache.tags.avg_refs             50.856853                       # Average number of references to valid blocks.
system.cpu.icache.tags.warmup_cycle             66400                       # Cycle when the warmup percentage was hit.
system.cpu.icache.tags.occ_blocks::.cpu.inst   253.763485                       # Average occupied blocks per requestor
system.cpu.icache.tags.occ_percent::.cpu.inst     0.991264                       # Average percentage of cache occupancy
system.cpu.icache.tags.occ_percent::total     0.991264                       # Average percentage of cache occupancy
system.cpu.icache.tags.occ_task_id_blocks::1024          256                       # Occupied blocks per task id
system.cpu.icache.tags.age_task_id_blocks_1024::0           79                       # Occupied blocks per task id
system.cpu.icache.tags.age_task_id_blocks_1024::1            6                       # Occupied blocks per task id
system.cpu.icache.tags.age_task_id_blocks_1024::2          167                       # Occupied blocks per task id
system.cpu.icache.tags.age_task_id_blocks_1024::3            4                       # Occupied blocks per task id
system.cpu.icache.tags.occ_task_id_percent::1024            1                       # Percentage of cache occupancy per task id
system.cpu.icache.tags.tag_accesses            603281                       # Number of tag accesses
system.cpu.icache.tags.data_accesses           603281                       # Number of data accesses
system.cpu.dtb.walker.pwrStateResidencyTicks::UNDEFINED   1227070000                       # Cumulative time (in ticks) in various power states
system.cpu.interrupts.clk_domain.clock           6400                       # Clock period in ticks
system.cpu.itb.walker.pwrStateResidencyTicks::UNDEFINED   1227070000                       # Cumulative time (in ticks) in various power states
system.cpu.dcache.pwrStateResidencyTicks::UNDEFINED   1227070000                       # Cumulative time (in ticks) in various power states
system.cpu.dcache.demand_hits::.cpu.data       830947                       # number of demand (read+write) hits
system.cpu.dcache.demand_hits::total           830947                       # number of demand (read+write) hits
system.cpu.dcache.overall_hits::.cpu.data       830947                       # number of overall hits
system.cpu.dcache.overall_hits::total          830947                       # number of overall hits
system.cpu.dcache.demand_misses::.cpu.data        35137                       # number of demand (read+write) misses
system.cpu.dcache.demand_misses::total          35137                       # number of demand (read+write) misses
system.cpu.dcache.overall_misses::.cpu.data        35137                       # number of overall misses
system.cpu.dcache.overall_misses::total         35137                       # number of overall misses
system.cpu.dcache.demand_miss_latency::.cpu.data   1700624400                       # number of demand (read+write) miss cycles
system.cpu.dcache.demand_miss_latency::total   1700624400                       # number of demand (read+write) miss cycles
system.cpu.dcache.overall_miss_latency::.cpu.data   1700624400                       # number of overall miss cycles
system.cpu.dcache.overall_miss_latency::total   1700624400                       # number of overall miss cycles
system.cpu.dcache.demand_accesses::.cpu.data       866084                       # number of demand (read+write) accesses
system.cpu.dcache.demand_accesses::total       866084                       # number of demand (read+write) accesses
system.cpu.dcache.overall_accesses::.cpu.data       866084                       # number of overall (read+write) accesses
system.cpu.dcache.overall_accesses::total       866084                       # number of overall (read+write) accesses
system.cpu.dcache.demand_miss_rate::.cpu.data     0.040570                       # miss rate for demand accesses
system.cpu.dcache.demand_miss_rate::total     0.040570                       # miss rate for demand accesses
system.cpu.dcache.overall_miss_rate::.cpu.data     0.040570                       # miss rate for overall accesses
system.cpu.dcache.overall_miss_rate::total     0.040570                       # miss rate for overall accesses
system.cpu.dcache.demand_avg_miss_latency::.cpu.data 48399.817856                       # average overall miss latency
system.cpu.dcache.demand_avg_miss_latency::total 48399.817856                       # average overall miss latency
system.cpu.dcache.overall_avg_miss_latency::.cpu.data 48399.817856                       # average overall miss latency
system.cpu.dcache.overall_avg_miss_latency::total 48399.817856                       # average overall miss latency
system.cpu.dcache.blocked_cycles::no_mshrs        27818                       # number of cycles access was blocked
system.cpu.dcache.blocked_cycles::no_targets          156                       # number of cycles access was blocked
system.cpu.dcache.blocked::no_mshrs               724                       # number of cycles access was blocked
system.cpu.dcache.blocked::no_targets               2                       # number of cycles access was blocked
system.cpu.dcache.avg_blocked_cycles::no_mshrs    38.422652                       # average number of cycles each access was blocked
system.cpu.dcache.avg_blocked_cycles::no_targets           78                       # average number of cycles each access was blocked
system.cpu.dcache.unused_prefetches              1681                       # number of HardPF blocks evicted w/o reference
system.cpu.dcache.writebacks::.writebacks         2807                       # number of writebacks
system.cpu.dcache.writebacks::total              2807                       # number of writebacks
system.cpu.dcache.demand_mshr_hits::.cpu.data        22417                       # number of demand (read+write) MSHR hits
system.cpu.dcache.demand_mshr_hits::total        22417                       # number of demand (read+write) MSHR hits
system.cpu.dcache.overall_mshr_hits::.cpu.data        22417                       # number of overall MSHR hits
system.cpu.dcache.overall_mshr_hits::total        22417                       # number of overall MSHR hits
system.cpu.dcache.demand_mshr_misses::.cpu.data        12720                       # number of demand (read+write) MSHR misses
system.cpu.dcache.demand_mshr_misses::total        12720                       # number of demand (read+write) MSHR misses
system.cpu.dcache.overall_mshr_misses::.cpu.data        12720                       # number of overall MSHR misses
system.cpu.dcache.overall_mshr_misses::.cpu.dcache.prefetcher         4179                       # number of overall MSHR misses
system.cpu.dcache.overall_mshr_misses::total        16899                       # number of overall MSHR misses
system.cpu.dcache.demand_mshr_miss_latency::.cpu.data    580833600                       # number of demand (read+write) MSHR miss cycles
system.cpu.dcache.demand_mshr_miss_latency::total    580833600                       # number of demand (read+write) MSHR miss cycles
system.cpu.dcache.overall_mshr_miss_latency::.cpu.data    580833600                       # number of overall MSHR miss cycles
system.cpu.dcache.overall_mshr_miss_latency::.cpu.dcache.prefetcher    249915145                       # number of overall MSHR miss cycles
system.cpu.dcache.overall_mshr_miss_latency::total    830748745                       # number of overall MSHR miss cycles
system.cpu.dcache.demand_mshr_miss_rate::.cpu.data     0.014687                       # mshr miss rate for demand accesses
system.cpu.dcache.demand_mshr_miss_rate::total     0.014687                       # mshr miss rate for demand accesses
system.cpu.dcache.overall_mshr_miss_rate::.cpu.data     0.014687                       # mshr miss rate for overall accesses
system.cpu.dcache.overall_mshr_miss_rate::.cpu.dcache.prefetcher          inf                       # mshr miss rate for overall accesses
system.cpu.dcache.overall_mshr_miss_rate::total     0.019512                       # mshr miss rate for overall accesses
system.cpu.dcache.demand_avg_mshr_miss_latency::.cpu.data 45663.018868                       # average overall mshr miss latency
system.cpu.dcache.demand_avg_mshr_miss_latency::total 45663.018868                       # average overall mshr miss latency
system.cpu.dcache.overall_avg_mshr_miss_latency::.cpu.data 45663.018868                       # average overall mshr miss latency
system.cpu.dcache.overall_avg_mshr_miss_latency::.cpu.dcache.prefetcher 59802.619048                       # average overall mshr miss latency
system.cpu.dcache.overall_avg_mshr_miss_latency::total 49159.639328                       # average overall mshr miss latency
system.cpu.dcache.replacements                  15875                       # number of replacements
system.cpu.dcache.ReadReq_hits::.cpu.data       610457                       # number of ReadReq hits
system.cpu.dcache.ReadReq_hits::total          610457                       # number of ReadReq hits
system.cpu.dcache.ReadReq_misses::.cpu.data        33059                       # number of ReadReq misses
system.cpu.dcache.ReadReq_misses::total         33059                       # number of ReadReq misses
system.cpu.dcache.ReadReq_miss_latency::.cpu.data   1598171200                       # number of ReadReq miss cycles
system.cpu.dcache.ReadReq_miss_latency::total   1598171200                       # number of ReadReq miss cycles
system.cpu.dcache.ReadReq_accesses::.cpu.data       643516                       # number of ReadReq accesses(hits+misses)
system.cpu.dcache.ReadReq_accesses::total       643516                       # number of ReadReq accesses(hits+misses)
system.cpu.dcache.ReadReq_miss_rate::.cpu.data     0.051372                       # miss rate for ReadReq accesses
system.cpu.dcache.ReadReq_miss_rate::total     0.051372                       # miss rate for ReadReq accesses
system.cpu.dcache.ReadReq_avg_miss_latency::.cpu.data 48342.998881                       # average ReadReq miss latency
system.cpu.dcache.ReadReq_avg_miss_latency::total 48342.998881                       # average ReadReq miss latency
system.cpu.dcache.ReadReq_mshr_hits::.cpu.data        22380                       # number of ReadReq MSHR hits
system.cpu.dcache.ReadReq_mshr_hits::total        22380                       # number of ReadReq MSHR hits
system.cpu.dcache.ReadReq_mshr_misses::.cpu.data        10679                       # number of ReadReq MSHR misses
system.cpu.dcache.ReadReq_mshr_misses::total        10679                       # number of ReadReq MSHR misses
system.cpu.dcache.ReadReq_mshr_miss_latency::.cpu.data    481279200                       # number of ReadReq MSHR miss cycles
system.cpu.dcache.ReadReq_mshr_miss_latency::total    481279200                       # number of ReadReq MSHR miss cycles
system.cpu.dcache.ReadReq_mshr_miss_rate::.cpu.data     0.016595                       # mshr miss rate for ReadReq accesses
system.cpu.dcache.ReadReq_mshr_miss_rate::total     0.016595                       # mshr miss rate for ReadReq accesses
system.cpu.dcache.ReadReq_avg_mshr_miss_latency::.cpu.data 45067.815339                       # average ReadReq mshr miss latency
system.cpu.dcache.ReadReq_avg_mshr_miss_latency::total 45067.815339                       # average ReadReq mshr miss latency
system.cpu.dcache.WriteReq_hits::.cpu.data       220490                       # number of WriteReq hits
system.cpu.dcache.WriteReq_hits::total         220490                       # number of WriteReq hits
system.cpu.dcache.WriteReq_misses::.cpu.data         2078                       # number of WriteReq misses
system.cpu.dcache.WriteReq_misses::total         2078                       # number of WriteReq misses
system.cpu.dcache.WriteReq_miss_latency::.cpu.data    102453200                       # number of WriteReq miss cycles
system.cpu.dcache.WriteReq_miss_latency::total    102453200                       # number of WriteReq miss cycles
system.cpu.dcache.WriteReq_accesses::.cpu.data       222568                       # number of WriteReq accesses(hits+misses)
system.cpu.dcache.WriteReq_accesses::total       222568                       # number of WriteReq accesses(hits+misses)
system.cpu.dcache.WriteReq_miss_rate::.cpu.data     0.009336                       # miss rate for WriteReq accesses
system.cpu.dcache.WriteReq_miss_rate::total     0.009336                       # miss rate for WriteReq accesses
system.cpu.dcache.WriteReq_avg_miss_latency::.cpu.data 49303.753609                       # average WriteReq miss latency
system.cpu.dcache.WriteReq_avg_miss_latency::total 49303.753609                       # average WriteReq miss latency
system.cpu.dcache.WriteReq_mshr_hits::.cpu.data           37                       # number of WriteReq MSHR hits
system.cpu.dcache.WriteReq_mshr_hits::total           37                       # number of WriteReq MSHR hits
system.cpu.dcache.WriteReq_mshr_misses::.cpu.data         2041                       # number of WriteReq MSHR misses
system.cpu.dcache.WriteReq_mshr_misses::total         2041                       # number of WriteReq MSHR misses
[...]
system.l2cache.overall_mshr_miss_latency::total     15039979                       # number of overall MSHR miss cycles
system.l2cache.demand_mshr_miss_rate::.cpu.inst     0.061979                       # mshr miss rate for demand accesses
system.l2cache.demand_mshr_miss_rate::.cpu.data     0.519737                       # mshr miss rate for demand accesses
system.l2cache.demand_mshr_miss_rate::.cpu.dcache.prefetcher     0.708333                       # mshr miss rate for demand accesses
system.l2cache.demand_mshr_miss_rate::total     0.093576                       # mshr miss rate for demand accesses
system.l2cache.overall_mshr_miss_rate::.cpu.inst     0.061979                       # mshr miss rate for overall accesses
system.l2cache.overall_mshr_miss_rate::.cpu.data     0.519737                       # mshr miss rate for overall accesses
system.l2cache.overall_mshr_miss_rate::.cpu.dcache.prefetcher     0.708333                       # mshr miss rate for overall accesses
system.l2cache.overall_mshr_miss_rate::.l2cache.prefetcher          inf                       # mshr miss rate for overall accesses
system.l2cache.overall_mshr_miss_rate::total     0.094319                       # mshr miss rate for overall accesses
system.l2cache.demand_avg_mshr_miss_latency::.cpu.inst 59825.641026                       # average overall mshr miss latency
system.l2cache.demand_avg_mshr_miss_latency::.cpu.data 57954.430380                       # average overall mshr miss latency
system.l2cache.demand_avg_mshr_miss_latency::.cpu.dcache.prefetcher        59646                       # average overall mshr miss latency
system.l2cache.demand_avg_mshr_miss_latency::total 59226.912698                       # average overall mshr miss latency
system.l2cache.overall_avg_mshr_miss_latency::.cpu.inst 59825.641026                       # average overall mshr miss latency
system.l2cache.overall_avg_mshr_miss_latency::.cpu.data 57954.430380                       # average overall mshr miss latency
system.l2cache.overall_avg_mshr_miss_latency::.cpu.dcache.prefetcher        59646                       # average overall mshr miss latency
system.l2cache.overall_avg_mshr_miss_latency::.l2cache.prefetcher 57398.500000                       # average overall mshr miss latency
system.l2cache.overall_avg_mshr_miss_latency::total 59212.515748                       # average overall mshr miss latency
system.l2cache.replacements                       257                       # number of replacements
system.l2cache.WritebackDirty_hits::.writebacks           47                       # number of WritebackDirty hits
system.l2cache.WritebackDirty_hits::total           47                       # number of WritebackDirty hits
system.l2cache.WritebackDirty_accesses::.writebacks           47                       # number of WritebackDirty accesses(hits+misses)
system.l2cache.WritebackDirty_accesses::total           47                       # number of WritebackDirty accesses(hits+misses)
system.l2cache.CleanEvict_mshr_misses::.writebacks            6                       # number of CleanEvict MSHR misses
system.l2cache.CleanEvict_mshr_misses::total            6                       # number of CleanEvict MSHR misses
system.l2cache.CleanEvict_mshr_miss_rate::.writebacks          inf                       # mshr miss rate for CleanEvict accesses
system.l2cache.CleanEvict_mshr_miss_rate::total          inf                       # mshr miss rate for CleanEvict accesses
system.l2cache.HardPFReq_mshr_misses::.l2cache.prefetcher            2                       # number of HardPFReq MSHR misses
system.l2cache.HardPFReq_mshr_misses::total            2                       # number of HardPFReq MSHR misses
system.l2cache.HardPFReq_mshr_miss_latency::.l2cache.prefetcher       114797                       # number of HardPFReq MSHR miss cycles
system.l2cache.HardPFReq_mshr_miss_latency::total       114797                       # number of HardPFReq MSHR miss cycles
system.l2cache.HardPFReq_mshr_miss_rate::.l2cache.prefetcher          inf                       # mshr miss rate for HardPFReq accesses
system.l2cache.HardPFReq_mshr_miss_rate::total          inf                       # mshr miss rate for HardPFReq accesses
system.l2cache.HardPFReq_avg_mshr_miss_latency::.l2cache.prefetcher 57398.500000                       # average HardPFReq mshr miss latency
system.l2cache.HardPFReq_avg_mshr_miss_latency::total 57398.500000                       # average HardPFReq mshr miss latency
system.l2cache.ReadExReq_hits::.cpu.data            4                       # number of ReadExReq hits
system.l2cache.ReadExReq_hits::total                4                       # number of ReadExReq hits
system.l2cache.ReadExReq_misses::.cpu.data            5                       # number of ReadExReq misses
system.l2cache.ReadExReq_misses::total              5                       # number of ReadExReq misses
system.l2cache.ReadExReq_miss_latency::.cpu.data       356400                       # number of ReadExReq miss cycles
system.l2cache.ReadExReq_miss_latency::total       356400                       # number of ReadExReq miss cycles
system.l2cache.ReadExReq_accesses::.cpu.data            9                       # number of ReadExReq accesses(hits+misses)
system.l2cache.ReadExReq_accesses::total            9                       # number of ReadExReq accesses(hits+misses)
system.l2cache.ReadExReq_miss_rate::.cpu.data     0.555556                       # miss rate for ReadExReq accesses
system.l2cache.ReadExReq_miss_rate::total     0.555556                       # miss rate for ReadExReq accesses
system.l2cache.ReadExReq_avg_miss_latency::.cpu.data        71280                       # average ReadExReq miss latency
system.l2cache.ReadExReq_avg_miss_latency::total        71280                       # average ReadExReq miss latency
system.l2cache.ReadExReq_mshr_misses::.cpu.data            5                       # number of ReadExReq MSHR misses
system.l2cache.ReadExReq_mshr_misses::total            5                       # number of ReadExReq MSHR misses
system.l2cache.ReadExReq_mshr_miss_latency::.cpu.data       316400                       # number of ReadExReq MSHR miss cycles
system.l2cache.ReadExReq_mshr_miss_latency::total       316400                       # number of ReadExReq MSHR miss cycles
system.l2cache.ReadExReq_mshr_miss_rate::.cpu.data     0.555556                       # mshr miss rate for ReadExReq accesses
system.l2cache.ReadExReq_mshr_miss_rate::total     0.555556                       # mshr miss rate for ReadExReq accesses
system.l2cache.ReadExReq_avg_mshr_miss_latency::.cpu.data        63280                       # average ReadExReq mshr miss latency
system.l2cache.ReadExReq_avg_mshr_miss_latency::total        63280                       # average ReadExReq mshr miss latency
system.l2cache.ReadSharedReq_hits::.cpu.inst         2361                       # number of ReadSharedReq hits
system.l2cache.ReadSharedReq_hits::.cpu.data           69                       # number of ReadSharedReq hits
system.l2cache.ReadSharedReq_hits::.cpu.dcache.prefetcher            7                       # number of ReadSharedReq hits
system.l2cache.ReadSharedReq_hits::total         2437                       # number of ReadSharedReq hits
system.l2cache.ReadSharedReq_misses::.cpu.inst          156                       # number of ReadSharedReq misses
system.l2cache.ReadSharedReq_misses::.cpu.data           74                       # number of ReadSharedReq misses
system.l2cache.ReadSharedReq_misses::.cpu.dcache.prefetcher           17                       # number of ReadSharedReq misses
system.l2cache.ReadSharedReq_misses::total          247                       # number of ReadSharedReq misses
system.l2cache.ReadSharedReq_miss_latency::.cpu.inst     10572800                       # number of ReadSharedReq miss cycles
system.l2cache.ReadSharedReq_miss_latency::.cpu.data      4854000                       # number of ReadSharedReq miss cycles
system.l2cache.ReadSharedReq_miss_latency::.cpu.dcache.prefetcher      1149982                       # number of ReadSharedReq miss cycles
system.l2cache.ReadSharedReq_miss_latency::total     16576782                       # number of ReadSharedReq miss cycles
system.l2cache.ReadSharedReq_accesses::.cpu.inst         2517                       # number of ReadSharedReq accesses(hits+misses)
system.l2cache.ReadSharedReq_accesses::.cpu.data          143                       # number of ReadSharedReq accesses(hits+misses)
system.l2cache.ReadSharedReq_accesses::.cpu.dcache.prefetcher           24                       # number of ReadSharedReq accesses(hits+misses)
system.l2cache.ReadSharedReq_accesses::total         2684                       # number of ReadSharedReq accesses(hits+misses)
system.l2cache.ReadSharedReq_miss_rate::.cpu.inst     0.061979                       # miss rate for ReadSharedReq accesses
system.l2cache.ReadSharedReq_miss_rate::.cpu.data     0.517483                       # miss rate for ReadSharedReq accesses
system.l2cache.ReadSharedReq_miss_rate::.cpu.dcache.prefetcher     0.708333                       # miss rate for ReadSharedReq accesses
system.l2cache.ReadSharedReq_miss_rate::total     0.092027                       # miss rate for ReadSharedReq accesses
system.l2cache.ReadSharedReq_avg_miss_latency::.cpu.inst 67774.358974                       # average ReadSharedReq miss latency
system.l2cache.ReadSharedReq_avg_miss_latency::.cpu.data 65594.594595                       # average ReadSharedReq miss latency
system.l2cache.ReadSharedReq_avg_miss_latency::.cpu.dcache.prefetcher        67646                       # average ReadSharedReq miss latency
system.l2cache.ReadSharedReq_avg_miss_latency::total 67112.477733                       # average ReadSharedReq miss latency
system.l2cache.ReadSharedReq_mshr_misses::.cpu.inst          156                       # number of ReadSharedReq MSHR misses
system.l2cache.ReadSharedReq_mshr_misses::.cpu.data           74                       # number of ReadSharedReq MSHR misses
system.l2cache.ReadSharedReq_mshr_misses::.cpu.dcache.prefetcher           17                       # number of ReadSharedReq MSHR misses
system.l2cache.ReadSharedReq_mshr_misses::total          247                       # number of ReadSharedReq MSHR misses
system.l2cache.ReadSharedReq_mshr_miss_latency::.cpu.inst      9332800                       # number of ReadSharedReq MSHR miss cycles
system.l2cache.ReadSharedReq_mshr_miss_latency::.cpu.data      4262000                       # number of ReadSharedReq MSHR miss cycles
system.l2cache.ReadSharedReq_mshr_miss_latency::.cpu.dcache.prefetcher      1013982                       # number of ReadSharedReq MSHR miss cycles
system.l2cache.ReadSharedReq_mshr_miss_latency::total     14608782                       # number of ReadSharedReq MSHR miss cycles
system.l2cache.ReadSharedReq_mshr_miss_rate::.cpu.inst     0.061979                       # mshr miss rate for ReadSharedReq accesses
system.l2cache.ReadSharedReq_mshr_miss_rate::.cpu.data     0.517483                       # mshr miss rate for ReadSharedReq accesses
system.l2cache.ReadSharedReq_mshr_miss_rate::.cpu.dcache.prefetcher     0.708333                       # mshr miss rate for ReadSharedReq accesses
system.l2cache.ReadSharedReq_mshr_miss_rate::total     0.092027                       # mshr miss rate for ReadSharedReq accesses
system.l2cache.ReadSharedReq_avg_mshr_miss_latency::.cpu.inst 59825.641026                       # average ReadSharedReq mshr miss latency
system.l2cache.ReadSharedReq_avg_mshr_miss_latency::.cpu.data 57594.594595                       # average ReadSharedReq mshr miss latency
system.l2cache.ReadSharedReq_avg_mshr_miss_latency::.cpu.dcache.prefetcher        59646                       # average ReadSharedReq mshr miss latency
system.l2cache.ReadSharedReq_avg_mshr_miss_latency::total 59144.866397                       # average ReadSharedReq mshr miss latency
system.l2cache.prefetcher.pwrStateResidencyTicks::UNDEFINED    149580400                       # Cumulative time (in ticks) in various power states
system.l2cache.tags.pwrStateResidencyTicks::UNDEFINED    149580400                       # Cumulative time (in ticks) in various power states
system.l2cache.tags.tagsinuse                    4096                       # Cycle average of tags in use
system.l2cache.tags.total_refs                  22098                       # Total number of references to valid blocks.
system.l2cache.tags.sampled_refs                 4353                       # Sample count of references to valid blocks.
system.l2cache.tags.avg_refs                 5.076499                       # Average number of references to valid blocks.
system.l2cache.tags.warmup_cycle                    0                       # Cycle when the warmup percentage was hit.
system.l2cache.tags.occ_blocks::.writebacks    37.978438                       # Average occupied blocks per requestor
system.l2cache.tags.occ_blocks::.cpu.inst  1138.229253                       # Average occupied blocks per requestor
system.l2cache.tags.occ_blocks::.cpu.data  1848.948057                       # Average occupied blocks per requestor
system.l2cache.tags.occ_blocks::.cpu.dcache.prefetcher   959.898192                       # Average occupied blocks per requestor
system.l2cache.tags.occ_blocks::.l2cache.prefetcher   110.946060                       # Average occupied blocks per requestor
system.l2cache.tags.occ_percent::.writebacks     0.009272                       # Average percentage of cache occupancy
system.l2cache.tags.occ_percent::.cpu.inst     0.277888                       # Average percentage of cache occupancy
system.l2cache.tags.occ_percent::.cpu.data     0.451403                       # Average percentage of cache occupancy
system.l2cache.tags.occ_percent::.cpu.dcache.prefetcher     0.234350                       # Average percentage of cache occupancy
system.l2cache.tags.occ_percent::.l2cache.prefetcher     0.027086                       # Average percentage of cache occupancy
system.l2cache.tags.occ_percent::total       1.000000                       # Average percentage of cache occupancy
system.l2cache.tags.occ_task_id_blocks::1022         1032                       # Occupied blocks per task id
system.l2cache.tags.occ_task_id_blocks::1024         3064                       # Occupied blocks per task id
system.l2cache.tags.age_task_id_blocks_1022::0            9                       # Occupied blocks per task id
system.l2cache.tags.age_task_id_blocks_1022::1            4                       # Occupied blocks per task id
system.l2cache.tags.age_task_id_blocks_1022::2            6                       # Occupied blocks per task id
system.l2cache.tags.age_task_id_blocks_1022::4         1013                       # Occupied blocks per task id
system.l2cache.tags.age_task_id_blocks_1024::0          165                       # Occupied blocks per task id
system.l2cache.tags.age_task_id_blocks_1024::1           35                       # Occupied blocks per task id
system.l2cache.tags.age_task_id_blocks_1024::2           38                       # Occupied blocks per task id
system.l2cache.tags.age_task_id_blocks_1024::4         2826                       # Occupied blocks per task id
system.l2cache.tags.occ_task_id_percent::1022     0.251953                       # Percentage of cache occupancy per task id
system.l2cache.tags.occ_task_id_percent::1024     0.748047                       # Percentage of cache occupancy per task id
system.l2cache.tags.tag_accesses                43321                       # Number of tag accesses
system.l2cache.tags.data_accesses               43321                       # Number of data accesses
system.mem_ctrl.pwrStateResidencyTicks::UNDEFINED    149580400                       # Cumulative time (in ticks) in various power states
system.mem_ctrl.bytes_read::.cpu.inst            9920                       # Number of bytes read from this memory
system.mem_ctrl.bytes_read::.cpu.data            5056                       # Number of bytes read from this memory
system.mem_ctrl.bytes_read::.cpu.dcache.prefetcher         1088                       # Number of bytes read from this memory
system.mem_ctrl.bytes_read::.l2cache.prefetcher          128                       # Number of bytes read from this memory
system.mem_ctrl.bytes_read::total               16192                       # Number of bytes read from this memory
system.mem_ctrl.bytes_inst_read::.cpu.inst         9920                       # Number of instructions bytes read from this memory
system.mem_ctrl.bytes_inst_read::total           9920                       # Number of instructions bytes read from this memory
system.mem_ctrl.bytes_written::.writebacks         1280                       # Number of bytes written to this memory
system.mem_ctrl.bytes_written::total             1280                       # Number of bytes written to this memory
system.mem_ctrl.num_reads::.cpu.inst              155                       # Number of read requests responded to by this memory
system.mem_ctrl.num_reads::.cpu.data               79                       # Number of read requests responded to by this memory
system.mem_ctrl.num_reads::.cpu.dcache.prefetcher           17                       # Number of read requests responded to by this memory
system.mem_ctrl.num_reads::.l2cache.prefetcher            2                       # Number of read requests responded to by this memory
system.mem_ctrl.num_reads::total                  253                       # Number of read requests responded to by this memory
system.mem_ctrl.num_writes::.writebacks            20                       # Number of write requests responded to by this memory
system.mem_ctrl.num_writes::total                  20                       # Number of write requests responded to by this memory
system.mem_ctrl.bw_read::.cpu.inst           66318849                       # Total read bandwidth from this memory (bytes/s)
system.mem_ctrl.bw_read::.cpu.data           33801220                       # Total read bandwidth from this memory (bytes/s)
system.mem_ctrl.bw_read::.cpu.dcache.prefetcher      7273680                       # Total read bandwidth from this memory (bytes/s)
system.mem_ctrl.bw_read::.l2cache.prefetcher       855727                       # Total read bandwidth from this memory (bytes/s)
system.mem_ctrl.bw_read::total              108249477                       # Total read bandwidth from this memory (bytes/s)
system.mem_ctrl.bw_inst_read::.cpu.inst      66318849                       # Instruction read bandwidth from this memory (bytes/s)
system.mem_ctrl.bw_inst_read::total          66318849                       # Instruction read bandwidth from this memory (bytes/s)
system.mem_ctrl.bw_write::.writebacks         8557271                       # Write bandwidth from this memory (bytes/s)
system.mem_ctrl.bw_write::total               8557271                       # Write bandwidth from this memory (bytes/s)
system.mem_ctrl.bw_total::.writebacks         8557271                       # Total bandwidth to/from this memory (bytes/s)
system.mem_ctrl.bw_total::.cpu.inst          66318849                       # Total bandwidth to/from this memory (bytes/s)
system.mem_ctrl.bw_total::.cpu.data          33801220                       # Total bandwidth to/from this memory (bytes/s)
system.mem_ctrl.bw_total::.cpu.dcache.prefetcher      7273680                       # Total bandwidth to/from this memory (bytes/s)
system.mem_ctrl.bw_total::.l2cache.prefetcher       855727                       # Total bandwidth to/from this memory (bytes/s)
system.mem_ctrl.bw_total::total             116806747                       # Total bandwidth to/from this memory (bytes/s)

---------- End Simulation Statistics   ----------
