
---------- Begin Simulation Statistics ----------
final_tick                                 1122050400                       # Number of ticks from beginning of simulation (restored from checkpoints and never reset)
host_inst_rate                                 190538                       # Simulator instruction rate (inst/s)
host_mem_usage                                4402744                       # Number of bytes of host memory used
host_op_rate                                   330405                       # Simulator op (including micro ops) rate (op/s)
host_seconds                                    11.48                       # Real time elapsed on the host
host_tick_rate                               97777914                       # Simulator tick rate (ticks/s)
sim_freq                                 1000000000000                       # Frequency of simulated ticks
sim_insts                                     2186499                       # Number of instructions simulated
sim_ops                                       3791554                       # Number of ops (including micro ops) simulated
sim_seconds                                  0.001122                       # Number of seconds simulated
sim_ticks                                  1122050400                       # Number of ticks simulated
system.cpu.branchPred.BTBCorrect                    0                       # Number of correct BTB predictions (this stat may not work properly.
system.cpu.branchPred.BTBHitPct              0.000000                       # BTB Hit Percentage
system.cpu.branchPred.BTBHits                       0                       # Number of BTB hits
system.cpu.branchPred.BTBLookups               444353                       # Number of BTB lookups
system.cpu.branchPred.RASInCorrect                  5                       # Number of incorrect RAS predictions.
system.cpu.branchPred.condIncorrect             23492                       # Number of conditional branches incorrect
system.cpu.branchPred.condPredicted            466722                       # Number of conditional branches predicted
system.cpu.branchPred.indirectHits             249162                       # Number of indirect target hits.
system.cpu.branchPred.indirectLookups          444353                       # Number of indirect predictor lookups.
system.cpu.branchPred.indirectMisses           195191                       # Number of indirect misses.
system.cpu.branchPred.lookups                  498101                       # Number of BP lookups
system.cpu.branchPred.usedRAS                   13919                       # Number of times the RAS was used to get a target.
system.cpu.branchPredindirectMispredicted        11393                       # Number of mispredicted indirect branches.
system.cpu.cc_regfile_reads                   2437986                       # number of cc regfile reads
system.cpu.cc_regfile_writes                  2051826                       # number of cc regfile writes
system.cpu.commit.amos                              0                       # Number of atomic instructions committed
system.cpu.commit.branchMispredicts             23549                       # The number of times a branch was mispredicted
system.cpu.commit.branches                     359706                       # Number of branches committed
system.cpu.commit.bw_lim_events                630519                       # number cycles where commit BW limit reached
system.cpu.commit.commitNonSpecStalls             732                       # The number of times commit has been forced to stall to communicate backwards
system.cpu.commit.commitSquashedInsts          856815                       # The number of squashed insts skipped by commit
system.cpu.commit.committedInsts              2186499                       # Number of instructions committed
system.cpu.commit.committedOps                3791554                       # Number of ops (including micro ops) committed
system.cpu.commit.committed_per_cycle::samples      2421263                       # Number of insts commited each cycle
system.cpu.commit.committed_per_cycle::mean     1.565941                       # Number of insts commited each cycle
system.cpu.commit.committed_per_cycle::stdev     1.722625                       # Number of insts commited each cycle
system.cpu.commit.committed_per_cycle::underflows            0      0.00%      0.00% # Number of insts commited each cycle
system.cpu.commit.committed_per_cycle::0      1170376     48.34%     48.34% # Number of insts commited each cycle
system.cpu.commit.committed_per_cycle::1       204402      8.44%     56.78% # Number of insts commited each cycle
system.cpu.commit.committed_per_cycle::2       182822      7.55%     64.33% # Number of insts commited each cycle
system.cpu.commit.committed_per_cycle::3       233144      9.63%     73.96% # Number of insts commited each cycle
system.cpu.commit.committed_per_cycle::4       630519     26.04%    100.00% # Number of insts commited each cycle
system.cpu.commit.committed_per_cycle::overflows            0      0.00%    100.00% # Number of insts commited each cycle
system.cpu.commit.committed_per_cycle::min_value            0                       # Number of insts commited each cycle
system.cpu.commit.committed_per_cycle::max_value            4                       # Number of insts commited each cycle
system.cpu.commit.committed_per_cycle::total      2421263                       # Number of insts commited each cycle
system.cpu.commit.fp_insts                      73106                       # Number of committed floating point instructions.
system.cpu.commit.function_calls                12148                       # Number of function calls committed.
system.cpu.commit.int_insts                   3737087                       # Number of committed integer instructions.
system.cpu.commit.loads                        508602                       # Number of loads committed
system.cpu.commit.membars                           1                       # Number of memory barriers committed
system.cpu.commit.op_class_0::No_OpClass        20279      0.53%      0.53% # Class of committed instruction
system.cpu.commit.op_class_0::IntAlu          2994713     78.98%     79.52% # Class of committed instruction
system.cpu.commit.op_class_0::IntMult            5371      0.14%     79.66% # Class of committed instruction
system.cpu.commit.op_class_0::IntDiv            37861      1.00%     80.66% # Class of committed instruction
system.cpu.commit.op_class_0::FloatAdd           2852      0.08%     80.73% # Class of committed instruction
system.cpu.commit.op_class_0::FloatCmp              0      0.00%     80.73% # Class of committed instruction
system.cpu.commit.op_class_0::FloatCvt           1200      0.03%     80.77% # Class of committed instruction
system.cpu.commit.op_class_0::FloatMult             0      0.00%     80.77% # Class of committed instruction
system.cpu.commit.op_class_0::FloatMultAcc            0      0.00%     80.77% # Class of committed instruction
system.cpu.commit.op_class_0::FloatDiv              0      0.00%     80.77% # Class of committed instruction
system.cpu.commit.op_class_0::FloatMisc             0      0.00%     80.77% # Class of committed instruction
system.cpu.commit.op_class_0::FloatSqrt             0      0.00%     80.77% # Class of committed instruction
system.cpu.commit.op_class_0::SimdAdd            6206      0.16%     80.93% # Class of committed instruction
system.cpu.commit.op_class_0::SimdAddAcc            0      0.00%     80.93% # Class of committed instruction
system.cpu.commit.op_class_0::SimdAlu           11160      0.29%     81.22% # Class of committed instruction
system.cpu.commit.op_class_0::SimdCmp               0      0.00%     81.22% # Class of committed instruction
system.cpu.commit.op_class_0::SimdCvt           12094      0.32%     81.54% # Class of committed instruction
system.cpu.commit.op_class_0::SimdMisc           6501      0.17%     81.71% # Class of committed instruction
system.cpu.commit.op_class_0::SimdMult              0      0.00%     81.71% # Class of committed instruction
system.cpu.commit.op_class_0::SimdMultAcc            0      0.00%     81.71% # Class of committed instruction
system.cpu.commit.op_class_0::SimdShift          1091      0.03%     81.74% # Class of committed instruction
system.cpu.commit.op_class_0::SimdShiftAcc            0      0.00%     81.74% # Class of committed instruction
system.cpu.commit.op_class_0::SimdDiv               0      0.00%     81.74% # Class of committed instruction
system.cpu.commit.op_class_0::SimdSqrt              0      0.00%     81.74% # Class of committed instruction
system.cpu.commit.op_class_0::SimdFloatAdd            0      0.00%     81.74% # Class of committed instruction
system.cpu.commit.op_class_0::SimdFloatAlu            0      0.00%     81.74% # Class of committed instruction
system.cpu.commit.op_class_0::SimdFloatCmp            0      0.00%     81.74% # Class of committed instruction
system.cpu.commit.op_class_0::SimdFloatCvt            0      0.00%     81.74% # Class of committed instruction
system.cpu.commit.op_class_0::SimdFloatDiv            0      0.00%     81.74% # Class of committed instruction
system.cpu.commit.op_class_0::SimdFloatMisc            0      0.00%     81.74% # Class of committed instruction
system.cpu.commit.op_class_0::SimdFloatMult            0      0.00%     81.74% # Class of committed instruction
system.cpu.commit.op_class_0::SimdFloatMultAcc            0      0.00%     81.74% # Class of committed instruction
system.cpu.commit.op_class_0::SimdFloatSqrt            0      0.00%     81.74% # Class of committed instruction
system.cpu.commit.op_class_0::SimdReduceAdd            0      0.00%     81.74% # Class of committed instruction
system.cpu.commit.op_class_0::SimdReduceAlu            0      0.00%     81.74% # Class of committed instruction
system.cpu.commit.op_class_0::SimdReduceCmp            0      0.00%     81.74% # Class of committed instruction
system.cpu.commit.op_class_0::SimdFloatReduceAdd            0      0.00%     81.74% # Class of committed instruction
system.cpu.commit.op_class_0::SimdFloatReduceCmp            0      0.00%     81.74% # Class of committed instruction
system.cpu.commit.op_class_0::SimdAes               0      0.00%     81.74% # Class of committed instruction
system.cpu.commit.op_class_0::SimdAesMix            0      0.00%     81.74% # Class of committed instruction
system.cpu.commit.op_class_0::SimdSha1Hash            0      0.00%     81.74% # Class of committed instruction
system.cpu.commit.op_class_0::SimdSha1Hash2            0      0.00%     81.74% # Class of committed instruction
system.cpu.commit.op_class_0::SimdSha256Hash            0      0.00%     81.74% # Class of committed instruction
system.cpu.commit.op_class_0::SimdSha256Hash2            0      0.00%     81.74% # Class of committed instruction
system.cpu.commit.op_class_0::SimdShaSigma2            0      0.00%     81.74% # Class of committed instruction
system.cpu.commit.op_class_0::SimdShaSigma3            0      0.00%     81.74% # Class of committed instruction
system.cpu.commit.op_class_0::SimdPredAlu            0      0.00%     81.74% # Class of committed instruction
system.cpu.commit.op_class_0::MemRead          489504     12.91%     94.65% # Class of committed instruction
system.cpu.commit.op_class_0::MemWrite         171555      4.52%     99.18% # Class of committed instruction
system.cpu.commit.op_class_0::FloatMemRead        19098      0.50%     99.68% # Class of committed instruction
system.cpu.commit.op_class_0::FloatMemWrite        12069      0.32%    100.00% # Class of committed instruction
system.cpu.commit.op_class_0::IprAccess             0      0.00%    100.00% # Class of committed instruction
system.cpu.commit.op_class_0::InstPrefetch            0      0.00%    100.00% # Class of committed instruction
system.cpu.commit.op_class_0::total           3791554                       # Class of committed instruction
system.cpu.commit.refs                         692226                       # Number of memory references committed
system.cpu.commit.swp_count                         0                       # Number of s/w prefetches committed
system.cpu.commit.vec_insts                         0                       # Number of committed Vector instructions.
system.cpu.committedInsts                     2186499                       # Number of Instructions Simulated
system.cpu.committedOps                       3791554                       # Number of Ops (including micro ops) Simulated
system.cpu.cpi                               1.282931                       # CPI: Cycles Per Instruction
system.cpu.cpi_total                         1.282931                       # CPI: Total CPI of All Threads
system.cpu.dcache.prefetcher.num_hwpf_issued         8677                       # number of hwpf issued
system.cpu.dcache.prefetcher.pfBufferHit        34098                       # number of redundant prefetches already in prefetch queue
system.cpu.dcache.prefetcher.pfIdentified        50364                       # number of prefetch candidates identified
system.cpu.dcache.prefetcher.pfInCache              0                       # number of redundant prefetches already in cache/mshr dropped
system.cpu.dcache.prefetcher.pfRemovedFull            0                       # number of prefetches dropped due to prefetch queue size
system.cpu.dcache.prefetcher.pfSpanPage          4856                       # number of prefetches that crossed the page
system.cpu.decode.BlockedCycles               1050902                       # Number of cycles decode is blocked
system.cpu.decode.DecodedInsts                4857499                       # Number of instructions handled by decode
system.cpu.decode.IdleCycles                   306003                       # Number of cycles decode is idle
system.cpu.decode.RunCycles                   1180384                       # Number of cycles decode is running
system.cpu.decode.SquashCycles                  23619                       # Number of cycles decode is squashing
system.cpu.decode.UnblockCycles                 93788                       # Number of cycles decode is unblocking
system.cpu.dtb.rdAccesses                      589310                       # TLB accesses on read requests
system.cpu.dtb.rdMisses                          1894                       # TLB misses on read requests
system.cpu.dtb.wrAccesses                      202555                       # TLB accesses on write requests
system.cpu.dtb.wrMisses                           177                       # TLB misses on write requests
system.cpu.fetch.Branches                      498101                       # Number of branches that fetch encountered
system.cpu.fetch.CacheLines                    259303                       # Number of cache lines fetched
system.cpu.fetch.Cycles                       2285335                       # Number of cycles fetch has run and was not squashing or blocked
system.cpu.fetch.IcacheSquashes                  4448                       # Number of outstanding Icache misses that were squashed
system.cpu.fetch.Insts                        2931843                       # Number of instructions fetch has processed
system.cpu.fetch.MiscStallCycles                   80                       # Number of cycles fetch has spent waiting on interrupts, or bad addresses, or out of MSHRs
system.cpu.fetch.PendingQuiesceStallCycles            6                       # Number of stall cycles due to pending quiesce instructions
system.cpu.fetch.PendingTrapStallCycles           431                       # Number of stall cycles due to pending traps
system.cpu.fetch.SquashCycles                   47238                       # Number of cycles fetch has spent squashing
system.cpu.fetch.branchRate                  0.177568                       # Number of branch fetches per cycle
system.cpu.fetch.icacheStallCycles             345225                       # Number of cycles fetch is stalled on an Icache miss
system.cpu.fetch.predictedBranches             263081                       # Number of branches that fetch has predicted taken
system.cpu.fetch.rate                        1.045173                       # Number of inst fetches per cycle
system.cpu.fetch.rateDist::samples            2654696                       # Number of instructions fetched each cycle (Total)
system.cpu.fetch.rateDist::mean              1.929832                       # Number of instructions fetched each cycle (Total)
system.cpu.fetch.rateDist::stdev             1.927301                       # Number of instructions fetched each cycle (Total)
system.cpu.fetch.rateDist::underflows               0      0.00%      0.00% # Number of instructions fetched each cycle (Total)
system.cpu.fetch.rateDist::0                  1262199     47.55%     47.55% # Number of instructions fetched each cycle (Total)
system.cpu.fetch.rateDist::1                    77841      2.93%     50.48% # Number of instructions fetched each cycle (Total)
system.cpu.fetch.rateDist::2                    64348      2.42%     52.90% # Number of instructions fetched each cycle (Total)
system.cpu.fetch.rateDist::3                    84653      3.19%     56.09% # Number of instructions fetched each cycle (Total)
system.cpu.fetch.rateDist::4                  1165655     43.91%    100.00% # Number of instructions fetched each cycle (Total)
system.cpu.fetch.rateDist::overflows                0      0.00%    100.00% # Number of instructions fetched each cycle (Total)
system.cpu.fetch.rateDist::min_value                0                       # Number of instructions fetched each cycle (Total)
system.cpu.fetch.rateDist::max_value                4                       # Number of instructions fetched each cycle (Total)
system.cpu.fetch.rateDist::total              2654696                       # Number of instructions fetched each cycle (Total)
system.cpu.fp_regfile_reads                    118131                       # number of floating regfile reads
system.cpu.fp_regfile_writes                    64800                       # number of floating regfile writes
system.cpu.fuPool.fu_ticks_busy::IntALU(0)    227283200                       # Total ticks fu was busy
system.cpu.fuPool.fu_ticks_busy::IntALU(1)    227282800                       # Total ticks fu was busy
system.cpu.fuPool.fu_ticks_busy::IntALU(2)    227282800                       # Total ticks fu was busy
system.cpu.fuPool.fu_ticks_busy::IntALU(3)    227282800                       # Total ticks fu was busy
system.cpu.fuPool.fu_ticks_busy::IntALU(4)    227282800                       # Total ticks fu was busy
system.cpu.fuPool.fu_ticks_busy::IntALU(5)    227282800                       # Total ticks fu was busy
system.cpu.fuPool.fu_ticks_busy::IntMultDiv(0)      9444000                       # Total ticks fu was busy
system.cpu.fuPool.fu_ticks_busy::IntMultDiv(1)      9443600                       # Total ticks fu was busy
system.cpu.fuPool.fu_ticks_busy::FP_ALU(0)       554400                       # Total ticks fu was busy
system.cpu.fuPool.fu_ticks_busy::FP_ALU(1)       554400                       # Total ticks fu was busy
system.cpu.fuPool.fu_ticks_busy::FP_ALU(2)       554000                       # Total ticks fu was busy
system.cpu.fuPool.fu_ticks_busy::FP_ALU(3)       553600                       # Total ticks fu was busy
system.cpu.fuPool.fu_ticks_busy::FP_MultDiv(0)            0                       # Total ticks fu was busy
system.cpu.fuPool.fu_ticks_busy::FP_MultDiv(1)            0                       # Total ticks fu was busy
system.cpu.fuPool.fu_ticks_busy::SIMD_Unit(0)      4349200                       # Total ticks fu was busy
system.cpu.fuPool.fu_ticks_busy::SIMD_Unit(1)      4295200                       # Total ticks fu was busy
system.cpu.fuPool.fu_ticks_busy::SIMD_Unit(2)      4476800                       # Total ticks fu was busy
system.cpu.fuPool.fu_ticks_busy::SIMD_Unit(3)      4531600                       # Total ticks fu was busy
system.cpu.fuPool.fu_ticks_busy::PredALU(0)            0                       # Total ticks fu was busy
system.cpu.fuPool.fu_ticks_busy::RdWrPort(0)     80644800                       # Total ticks fu was busy
system.cpu.fuPool.fu_ticks_busy::RdWrPort(1)     80683600                       # Total ticks fu was busy
system.cpu.fuPool.fu_ticks_busy::RdWrPort(2)     80630000                       # Total ticks fu was busy
system.cpu.fuPool.fu_ticks_busy::RdWrPort(3)     80634800                       # Total ticks fu was busy
system.cpu.fuPool.fu_ticks_busy::IprPort(0)            0                       # Total ticks fu was busy
system.cpu.fuPool.fu_ticks_busy::total     1725047200                       # Total ticks fu was busy
system.cpu.icache.prefetcher.num_hwpf_issued            0                       # number of hwpf issued
system.cpu.icache.prefetcher.pfBufferHit            0                       # number of redundant prefetches already in prefetch queue
system.cpu.icache.prefetcher.pfIdentified            0                       # number of prefetch candidates identified
system.cpu.icache.prefetcher.pfInCache              0                       # number of redundant prefetches already in cache/mshr dropped
system.cpu.icache.prefetcher.pfRemovedFull            0                       # number of prefetches dropped due to prefetch queue size
system.cpu.icache.prefetcher.pfSpanPage             0                       # number of prefetches that crossed the page
system.cpu.idleCycles                          150431                       # Total number of cycles that the CPU has spent unscheduled due to idling
system.cpu.iew.branchMispredicts                27736                       # Number of branch mispredicts detected at execute
system.cpu.iew.exec_branches                   388819                       # Number of branches executed
system.cpu.iew.exec_nop                             0                       # number of nop insts executed
system.cpu.iew.exec_rate                     1.534714                       # Inst execution rate
system.cpu.iew.exec_refs                       793721                       # number of memory reference insts executed
system.cpu.iew.exec_stores                     202544                       # Number of stores executed
system.cpu.iew.exec_swp                             0                       # number of swp insts executed
system.cpu.iew.iewBlockCycles                  683635                       # Number of cycles IEW is blocking
system.cpu.iew.iewDispLoadInsts                620596                       # Number of dispatched load instructions
system.cpu.iew.iewDispNonSpecInsts                924                       # Number of dispatched non-speculative instructions
system.cpu.iew.iewDispSquashedInsts               519                       # Number of squashed instructions skipped by dispatch
system.cpu.iew.iewDispStoreInsts               212818                       # Number of dispatched store instructions
system.cpu.iew.iewDispatchedInsts             4648305                       # Number of instructions dispatched to IQ
system.cpu.iew.iewExecLoadInsts                591177                       # Number of load instructions executed
system.cpu.iew.iewExecSquashedInsts             33592                       # Number of squashed instructions skipped in execute
system.cpu.iew.iewExecutedInsts               4305068                       # Number of executed instructions
system.cpu.iew.iewIQFullEvents                   3260                       # Number of times the IQ has become full, causing a stall
system.cpu.iew.iewIdleCycles                        0                       # Number of cycles IEW is idle
system.cpu.iew.iewLSQFullEvents                  8051                       # Number of times the LSQ has become full, causing a stall
system.cpu.iew.iewSquashCycles                  23619                       # Number of cycles IEW is squashing
system.cpu.iew.iewUnblockCycles                 14192                       # Number of cycles IEW is unblocking
system.cpu.iew.lsq.thread0.blockedLoads             0                       # Number of blocked loads due to partial load-store forwarding
system.cpu.iew.lsq.thread0.cacheBlocked           622                       # Number of times an access to memory failed due to the cache being blocked
system.cpu.iew.lsq.thread0.forwLoads            44638                       # Number of loads that had data forwarded from stores
system.cpu.iew.lsq.thread0.ignoredResponses          226                       # Number of memory responses ignored because the instruction is squashed
system.cpu.iew.lsq.thread0.invAddrLoads             0                       # Number of loads ignored due to an invalid address
system.cpu.iew.lsq.thread0.invAddrSwpfs             0                       # Number of software prefetches ignored due to an invalid address
system.cpu.iew.lsq.thread0.memOrderViolation           84                       # Number of memory ordering violations
system.cpu.iew.lsq.thread0.rescheduledLoads            0                       # Number of loads that were rescheduled
system.cpu.iew.lsq.thread0.squashedLoads       111992                       # Number of loads squashed
system.cpu.iew.lsq.thread0.squashedStores        29193                       # Number of stores squashed
system.cpu.iew.memOrderViolationEvents             84                       # Number of memory order violations
system.cpu.iew.predictedNotTakenIncorrect        19338                       # Number of branches that were predicted not taken incorrectly
system.cpu.iew.predictedTakenIncorrect           8398                       # Number of branches that were predicted taken incorrectly
system.cpu.iew.wb_consumers                   6069530                       # num instructions consuming a value
system.cpu.iew.wb_count                       4283606                       # cumulative count of insts written-back
system.cpu.iew.wb_fanout                     0.564936                       # average fanout of values written-back
system.cpu.iew.wb_producers                   3428899                       # num instructions producing a value
system.cpu.iew.wb_rate                       1.527063                       # insts written-back per cycle
system.cpu.iew.wb_sent                        4290232                       # cumulative count of insts sent to commit
system.cpu.int_regfile_reads                  6694321                       # number of integer regfile reads
system.cpu.int_regfile_writes                 3708240                       # number of integer regfile writes
system.cpu.ipc                               0.779465                       # IPC: Instructions Per Cycle
system.cpu.ipc_total                         0.779465                       # IPC: Total IPC of All Threads
system.cpu.iq.FU_type_0::No_OpClass             26042      0.60%      0.60% # Type of FU issued
system.cpu.iq.FU_type_0::IntAlu               3409244     78.58%     79.18% # Type of FU issued
system.cpu.iq.FU_type_0::IntMult                 5413      0.12%     79.30% # Type of FU issued
system.cpu.iq.FU_type_0::IntDiv                 41806      0.96%     80.27% # Type of FU issued
system.cpu.iq.FU_type_0::FloatAdd                4299      0.10%     80.37% # Type of FU issued
system.cpu.iq.FU_type_0::FloatCmp                   0      0.00%     80.37% # Type of FU issued
system.cpu.iq.FU_type_0::FloatCvt                1242      0.03%     80.39% # Type of FU issued
system.cpu.iq.FU_type_0::FloatMult                  0      0.00%     80.39% # Type of FU issued
system.cpu.iq.FU_type_0::FloatMultAcc               0      0.00%     80.39% # Type of FU issued
system.cpu.iq.FU_type_0::FloatDiv                   0      0.00%     80.39% # Type of FU issued
system.cpu.iq.FU_type_0::FloatMisc                  0      0.00%     80.39% # Type of FU issued
system.cpu.iq.FU_type_0::FloatSqrt                  0      0.00%     80.39% # Type of FU issued
system.cpu.iq.FU_type_0::SimdAdd                 6796      0.16%     80.55% # Type of FU issued
system.cpu.iq.FU_type_0::SimdAddAcc                 0      0.00%     80.55% # Type of FU issued
system.cpu.iq.FU_type_0::SimdAlu                14514      0.33%     80.89% # Type of FU issued
system.cpu.iq.FU_type_0::SimdCmp                    0      0.00%     80.89% # Type of FU issued
system.cpu.iq.FU_type_0::SimdCvt                13727      0.32%     81.20% # Type of FU issued
system.cpu.iq.FU_type_0::SimdMisc                7041      0.16%     81.36% # Type of FU issued
system.cpu.iq.FU_type_0::SimdMult                   0      0.00%     81.36% # Type of FU issued
system.cpu.iq.FU_type_0::SimdMultAcc                0      0.00%     81.36% # Type of FU issued
system.cpu.iq.FU_type_0::SimdShift               2054      0.05%     81.41% # Type of FU issued
system.cpu.iq.FU_type_0::SimdShiftAcc               0      0.00%     81.41% # Type of FU issued
system.cpu.iq.FU_type_0::SimdDiv                    0      0.00%     81.41% # Type of FU issued
system.cpu.iq.FU_type_0::SimdSqrt                   0      0.00%     81.41% # Type of FU issued
system.cpu.iq.FU_type_0::SimdFloatAdd               0      0.00%     81.41% # Type of FU issued
system.cpu.iq.FU_type_0::SimdFloatAlu               0      0.00%     81.41% # Type of FU issued
system.cpu.iq.FU_type_0::SimdFloatCmp               0      0.00%     81.41% # Type of FU issued
system.cpu.iq.FU_type_0::SimdFloatCvt               0      0.00%     81.41% # Type of FU issued
system.cpu.iq.FU_type_0::SimdFloatDiv               0      0.00%     81.41% # Type of FU issued
system.cpu.iq.FU_type_0::SimdFloatMisc              0      0.00%     81.41% # Type of FU issued
system.cpu.iq.FU_type_0::SimdFloatMult              0      0.00%     81.41% # Type of FU issued
system.cpu.iq.FU_type_0::SimdFloatMultAcc            0      0.00%     81.41% # Type of FU issued
system.cpu.iq.FU_type_0::SimdFloatSqrt              0      0.00%     81.41% # Type of FU issued
system.cpu.iq.FU_type_0::SimdReduceAdd              0      0.00%     81.41% # Type of FU issued
system.cpu.iq.FU_type_0::SimdReduceAlu              0      0.00%     81.41% # Type of FU issued
system.cpu.iq.FU_type_0::SimdReduceCmp              0      0.00%     81.41% # Type of FU issued
system.cpu.iq.FU_type_0::SimdFloatReduceAdd            0      0.00%     81.41% # Type of FU issued
system.cpu.iq.FU_type_0::SimdFloatReduceCmp            0      0.00%     81.41% # Type of FU issued
system.cpu.iq.FU_type_0::SimdAes                    0      0.00%     81.41% # Type of FU issued
system.cpu.iq.FU_type_0::SimdAesMix                 0      0.00%     81.41% # Type of FU issued
system.cpu.iq.FU_type_0::SimdSha1Hash               0      0.00%     81.41% # Type of FU issued
system.cpu.iq.FU_type_0::SimdSha1Hash2              0      0.00%     81.41% # Type of FU issued
system.cpu.iq.FU_type_0::SimdSha256Hash             0      0.00%     81.41% # Type of FU issued
system.cpu.iq.FU_type_0::SimdSha256Hash2            0      0.00%     81.41% # Type of FU issued
system.cpu.iq.FU_type_0::SimdShaSigma2              0      0.00%     81.41% # Type of FU issued
system.cpu.iq.FU_type_0::SimdShaSigma3              0      0.00%     81.41% # Type of FU issued
system.cpu.iq.FU_type_0::SimdPredAlu                0      0.00%     81.41% # Type of FU issued
system.cpu.iq.FU_type_0::MemRead               576683     13.29%     94.70% # Type of FU issued
system.cpu.iq.FU_type_0::MemWrite              191786      4.42%     99.12% # Type of FU issued
system.cpu.iq.FU_type_0::FloatMemRead           24622      0.57%     99.69% # Type of FU issued
system.cpu.iq.FU_type_0::FloatMemWrite          13394      0.31%    100.00% # Type of FU issued
system.cpu.iq.FU_type_0::IprAccess                  0      0.00%    100.00% # Type of FU issued
system.cpu.iq.FU_type_0::InstPrefetch               0      0.00%    100.00% # Type of FU issued
system.cpu.iq.FU_type_0::total                4338663                       # Type of FU issued
system.cpu.iq.fp_alu_accesses                   88673                       # Number of floating point alu accesses
system.cpu.iq.fp_inst_queue_reads              178573                       # Number of floating instruction queue reads
system.cpu.iq.fp_inst_queue_wakeup_accesses        85463                       # Number of floating instruction queue wakeup accesses
system.cpu.iq.fp_inst_queue_writes             126602                       # Number of floating instruction queue writes
system.cpu.iq.fu_busy_cnt                           0                       # FU busy when requested
system.cpu.iq.fu_busy_rate                          0                       # FU busy rate (busy events/executed inst)
system.cpu.iq.fu_full::No_OpClass                   0                       # attempts to use FU when none available
system.cpu.iq.fu_full::IntAlu                       0                       # attempts to use FU when none available
system.cpu.iq.fu_full::IntMult                      0                       # attempts to use FU when none available
system.cpu.iq.fu_full::IntDiv                       0                       # attempts to use FU when none available
system.cpu.iq.fu_full::FloatAdd                     0                       # attempts to use FU when none available
system.cpu.iq.fu_full::FloatCmp                     0                       # attempts to use FU when none available
system.cpu.iq.fu_full::FloatCvt                     0                       # attempts to use FU when none available
system.cpu.iq.fu_full::FloatMult                    0                       # attempts to use FU when none available
system.cpu.iq.fu_full::FloatMultAcc                 0                       # attempts to use FU when none available
system.cpu.iq.fu_full::FloatDiv                     0                       # attempts to use FU when none available
system.cpu.iq.fu_full::FloatMisc                    0                       # attempts to use FU when none available
system.cpu.iq.fu_full::FloatSqrt                    0                       # attempts to use FU when none available
system.cpu.iq.fu_full::SimdAdd                      0                       # attempts to use FU when none available
system.cpu.iq.fu_full::SimdAddAcc                   0                       # attempts to use FU when none available
system.cpu.iq.fu_full::SimdAlu                      0                       # attempts to use FU when none available
system.cpu.iq.fu_full::SimdCmp                      0                       # attempts to use FU when none available
system.cpu.iq.fu_full::SimdCvt                      0                       # attempts to use FU when none available
system.cpu.iq.fu_full::SimdMisc                     0                       # attempts to use FU when none available
system.cpu.iq.fu_full::SimdMult                     0                       # attempts to use FU when none available
system.cpu.iq.fu_full::SimdMultAcc                  0                       # attempts to use FU when none available
system.cpu.iq.fu_full::SimdShift                    0                       # attempts to use FU when none available
system.cpu.iq.fu_full::SimdShiftAcc                 0                       # attempts to use FU when none available
system.cpu.iq.fu_full::SimdDiv                      0                       # attempts to use FU when none available
system.cpu.iq.fu_full::SimdSqrt                     0                       # attempts to use FU when none available
system.cpu.iq.fu_full::SimdFloatAdd                 0                       # attempts to use FU when none available
system.cpu.iq.fu_full::SimdFloatAlu                 0                       # attempts to use FU when none available
system.cpu.iq.fu_full::SimdFloatCmp                 0                       # attempts to use FU when none available
system.cpu.iq.fu_full::SimdFloatCvt                 0                       # attempts to use FU when none available
system.cpu.iq.fu_full::SimdFloatDiv                 0                       # attempts to use FU when none available
system.cpu.iq.fu_full::SimdFloatMisc                0                       # attempts to use FU when none available
system.cpu.iq.fu_full::SimdFloatMult                0                       # attempts to use FU when none available
system.cpu.iq.fu_full::SimdFloatMultAcc             0                       # attempts to use FU when none available
system.cpu.iq.fu_full::SimdFloatSqrt                0                       # attempts to use FU when none available
system.cpu.iq.fu_full::SimdReduceAdd                0                       # attempts to use FU when none available
system.cpu.iq.fu_full::SimdReduceAlu                0                       # attempts to use FU when none available
system.cpu.iq.fu_full::SimdReduceCmp                0                       # attempts to use FU when none available
system.cpu.iq.fu_full::SimdFloatReduceAdd            0                       # attempts to use FU when none available
system.cpu.iq.fu_full::SimdFloatReduceCmp            0                       # attempts to use FU when none available
system.cpu.iq.fu_full::SimdAes                      0                       # attempts to use FU when none available
system.cpu.iq.fu_full::SimdAesMix                   0                       # attempts to use FU when none available
system.cpu.iq.fu_full::SimdSha1Hash                 0                       # attempts to use FU when none available
system.cpu.iq.fu_full::SimdSha1Hash2                0                       # attempts to use FU when none available
system.cpu.iq.fu_full::SimdSha256Hash               0                       # attempts to use FU when none available
system.cpu.iq.fu_full::SimdSha256Hash2              0                       # attempts to use FU when none available
system.cpu.iq.fu_full::SimdShaSigma2                0                       # attempts to use FU when none available
system.cpu.iq.fu_full::SimdShaSigma3                0                       # attempts to use FU when none available
system.cpu.iq.fu_full::SimdPredAlu                  0                       # attempts to use FU when none available
system.cpu.iq.fu_full::MemRead                      0                       # attempts to use FU when none available
system.cpu.iq.fu_full::MemWrite                     0                       # attempts to use FU when none available
system.cpu.iq.fu_full::FloatMemRead                 0                       # attempts to use FU when none available
system.cpu.iq.fu_full::FloatMemWrite                0                       # attempts to use FU when none available
system.cpu.iq.fu_full::IprAccess                    0                       # attempts to use FU when none available
system.cpu.iq.fu_full::InstPrefetch                 0                       # attempts to use FU when none available
system.cpu.iq.int_alu_accesses                4223948                       # Number of integer alu accesses
system.cpu.iq.int_inst_queue_reads           11171085                       # Number of integer instruction queue reads
system.cpu.iq.int_inst_queue_wakeup_accesses      4198143                       # Number of integer instruction queue wakeup accesses
system.cpu.iq.int_inst_queue_writes           5378524                       # Number of integer instruction queue writes
system.cpu.iq.iqInstsAdded                    4647207                       # Number of instructions added to the IQ (excludes non-spec)
system.cpu.iq.iqInstsIssued                   4338663                       # Number of instructions issued
system.cpu.iq.iqNonSpecInstsAdded                1098                       # Number of non-speculative instructions added to the IQ
system.cpu.iq.iqSquashedInstsExamined          856740                       # Number of squashed instructions iterated over during squash; mainly for profiling
system.cpu.iq.iqSquashedInstsIssued             17639                       # Number of squashed instructions issued
system.cpu.iq.iqSquashedNonSpecRemoved            366                       # Number of squashed non-spec instructions that were removed
system.cpu.iq.iqSquashedOperandsExamined      1277025                       # Number of squashed operands that are examined and possibly removed from graph
system.cpu.iq.issued_per_cycle::samples       2654696                       # Number of insts issued each cycle
system.cpu.iq.issued_per_cycle::mean         1.634335                       # Number of insts issued each cycle
system.cpu.iq.issued_per_cycle::stdev        1.663023                       # Number of insts issued each cycle
system.cpu.iq.issued_per_cycle::underflows            0      0.00%      0.00% # Number of insts issued each cycle
system.cpu.iq.issued_per_cycle::0             1177002     44.34%     44.34% # Number of insts issued each cycle
system.cpu.iq.issued_per_cycle::1              194592      7.33%     51.67% # Number of insts issued each cycle
system.cpu.iq.issued_per_cycle::2              313457     11.81%     63.47% # Number of insts issued each cycle
system.cpu.iq.issued_per_cycle::3              361423     13.61%     77.09% # Number of insts issued each cycle
system.cpu.iq.issued_per_cycle::4              608222     22.91%    100.00% # Number of insts issued each cycle
system.cpu.iq.issued_per_cycle::overflows            0      0.00%    100.00% # Number of insts issued each cycle
system.cpu.iq.issued_per_cycle::min_value            0                       # Number of insts issued each cycle
system.cpu.iq.issued_per_cycle::max_value            4                       # Number of insts issued each cycle
system.cpu.iq.issued_per_cycle::total         2654696                       # Number of insts issued each cycle
system.cpu.iq.rate                           1.546690                       # Inst issue rate
system.cpu.iq.vec_alu_accesses                      0                       # Number of vector alu accesses
system.cpu.iq.vec_inst_queue_reads                  0                       # Number of vector instruction queue reads
system.cpu.iq.vec_inst_queue_wakeup_accesses            0                       # Number of vector instruction queue wakeup accesses
system.cpu.iq.vec_inst_queue_writes                 0                       # Number of vector instruction queue writes
system.cpu.itb.rdAccesses                           0                       # TLB accesses on read requests
system.cpu.itb.rdMisses                             0                       # TLB misses on read requests
system.cpu.itb.wrAccesses                      259375                       # TLB accesses on write requests
system.cpu.itb.wrMisses                           310                       # TLB misses on write requests
system.cpu.memDep0.conflictingLoads             15510                       # Number of conflicting loads.
system.cpu.memDep0.conflictingStores             6688                       # Number of conflicting stores.
system.cpu.memDep0.insertedLoads               620596                       # Number of loads inserted to the mem dependence unit.
system.cpu.memDep0.insertedStores              212818                       # Number of stores inserted to the mem dependence unit.
system.cpu.misc_regfile_reads                 1610826                       # number of misc regfile reads
system.cpu.misc_regfile_writes                    675                       # number of misc regfile writes
system.cpu.numCycles                          2805127                       # number of cpu cycles simulated
system.cpu.numWorkItemsCompleted                    0                       # number of work items this cpu completed
system.cpu.numWorkItemsStarted                      0                       # number of work items this cpu started
system.cpu.process.numSyscalls                     56                       # Number of system calls
system.cpu.rename.BlockCycles                  837987                       # Number of cycles rename is blocking
system.cpu.rename.CommittedMaps               5220442                       # Number of HB maps that are committed
system.cpu.rename.FullRegisterEvents               30                       # Number of times there has been no free registers
system.cpu.rename.IQFullEvents                  53307                       # Number of times rename has blocked due to IQ full
system.cpu.rename.IdleCycles                   358871                       # Number of cycles rename is idle
system.cpu.rename.LQFullEvents                  14869                       # Number of times rename has blocked due to LQ full
system.cpu.rename.ROBFullEvents                  4619                       # Number of times rename has blocked due to ROB full
system.cpu.rename.RenameLookups              12442328                       # Number of register rename lookups that rename has made
system.cpu.rename.RenamedInsts                4784961                       # Number of instructions processed by rename
system.cpu.rename.RenamedOperands             6571607                       # Number of destination operands rename has renamed
system.cpu.rename.RunCycles                   1212351                       # Number of cycles rename is running
system.cpu.rename.SQFullEvents                  94082                       # Number of times rename has blocked due to SQ full
system.cpu.rename.SquashCycles                  23619                       # Number of cycles rename is squashing
system.cpu.rename.UnblockCycles                201480                       # Number of cycles rename is unblocking
system.cpu.rename.UndoneMaps                  1351142                       # Number of HB maps that are undone due to squashing
system.cpu.rename.fp_rename_lookups            149699                       # Number of floating rename lookups
system.cpu.rename.int_rename_lookups          7613542                       # Number of integer rename lookups
system.cpu.rename.serializeStallCycles          20388                       # count of cycles rename stalled for serializing inst
system.cpu.rename.serializingInsts                869                       # count of serializing insts renamed
system.cpu.rename.skidInsts                    225194                       # count of insts added to the skid buffer
system.cpu.rename.tempSerializingInsts            920                       # count of temporary serializing insts renamed
system.cpu.rob.rob_reads                      6439113                       # The number of ROB reads
system.cpu.rob.rob_writes                     9531049                       # The number of ROB writes
system.cpu.timesIdled                            1480                       # Number of times that the entire CPU went into an idle state and unscheduled itself
system.l2bus.snoop_filter.hit_multi_requests           10                       # Number of requests hitting in the snoop filter with multiple (>1) holders of the requested data.
system.l2bus.snoop_filter.hit_multi_snoops            0                       # Number of snoops hitting in the snoop filter with multiple (>1) holders of the requested data.
system.l2bus.snoop_filter.hit_single_requests        18674                       # Number of requests hitting in the snoop filter with a single holder of the requested data.
system.l2bus.snoop_filter.hit_single_snoops          444                       # Number of snoops hitting in the snoop filter with a single holder of the requested data.
system.l2bus.snoop_filter.tot_requests          38628                       # Total number of requests made to the snoop filter.
system.l2bus.snoop_filter.tot_snoops              444                       # Total number of snoops made to the snoop filter.
system.l2cache.prefetcher.num_hwpf_issued          819                       # number of hwpf issued
system.l2cache.prefetcher.pfBufferHit               0                       # number of redundant prefetches already in prefetch queue
system.l2cache.prefetcher.pfIdentified            819                       # number of prefetch candidates identified
system.l2cache.prefetcher.pfInCache                 0                       # number of redundant prefetches already in cache/mshr dropped
system.l2cache.prefetcher.pfRemovedFull             0                       # number of prefetches dropped due to prefetch queue size
system.l2cache.prefetcher.pfSpanPage               81                       # number of prefetches that crossed the page
system.membus.snoop_filter.hit_multi_requests            0                       # Number of requests hitting in the snoop filter with multiple (>1) holders of the requested data.
system.membus.snoop_filter.hit_multi_snoops            0                       # Number of snoops hitting in the snoop filter with multiple (>1) holders of the requested data.
system.membus.snoop_filter.hit_single_requests         9657                       # Number of requests hitting in the snoop filter with a single holder of the requested data.
system.membus.snoop_filter.hit_single_snoops            0                       # Number of snoops hitting in the snoop filter with a single holder of the requested data.
system.membus.snoop_filter.tot_requests         23434                       # Total number of requests made to the snoop filter.
system.membus.snoop_filter.tot_snoops               0                       # Total number of snoops made to the snoop filter.
system.membus.pwrStateResidencyTicks::UNDEFINED   1122050400                       # Cumulative time (in ticks) in various power states
system.membus.trans_dist::ReadResp              12256                       # Transaction distribution
system.membus.trans_dist::WritebackDirty         1349                       # Transaction distribution
system.membus.trans_dist::CleanEvict             8308                       # Transaction distribution
system.membus.trans_dist::ReadExReq              1521                       # Transaction distribution
system.membus.trans_dist::ReadExResp             1521                       # Transaction distribution
system.membus.trans_dist::ReadSharedReq         12256                       # Transaction distribution
system.membus.pkt_count_system.l2cache.mem_side::system.mem_ctrl.port        37211                       # Packet count per connected master and slave (bytes)
system.membus.pkt_count_system.l2cache.mem_side::total        37211                       # Packet count per connected master and slave (bytes)
system.membus.pkt_count::total                  37211                       # Packet count per connected master and slave (bytes)
system.membus.pkt_size_system.l2cache.mem_side::system.mem_ctrl.port       968064                       # Cumulative packet size per connected master and slave (bytes)
system.membus.pkt_size_system.l2cache.mem_side::total       968064                       # Cumulative packet size per connected master and slave (bytes)
system.membus.pkt_size::total                  968064                       # Cumulative packet size per connected master and slave (bytes)
system.membus.snoops                                0                       # Total snoops (count)
system.membus.snoopTraffic                          0                       # Total snoop traffic (bytes)
system.membus.snoop_fanout::samples             13777                       # Request fanout histogram
system.membus.snoop_fanout::mean                    0                       # Request fanout histogram
system.membus.snoop_fanout::stdev                   0                       # Request fanout histogram
system.membus.snoop_fanout::underflows              0      0.00%      0.00% # Request fanout histogram
system.membus.snoop_fanout::0                   13777    100.00%    100.00% # Request fanout histogram
system.membus.snoop_fanout::1                       0      0.00%    100.00% # Request fanout histogram
system.membus.snoop_fanout::overflows               0      0.00%    100.00% # Request fanout histogram
system.membus.snoop_fanout::min_value               0                       # Request fanout histogram
system.membus.snoop_fanout::max_value               0                       # Request fanout histogram
system.membus.snoop_fanout::total               13777                       # Request fanout histogram
system.membus.reqLayer2.occupancy            11569413                       # Layer occupancy (ticks)
system.membus.reqLayer2.utilization               1.0                       # Layer utilization (%)
system.membus.respLayer0.occupancy           29918987                       # Layer occupancy (ticks)
system.membus.respLayer0.utilization              2.7                       # Layer utilization (%)
system.l2bus.pwrStateResidencyTicks::UNDEFINED   1122050400                       # Cumulative time (in ticks) in various power states
system.l2bus.trans_dist::ReadResp               17666                       # Transaction distribution
system.l2bus.trans_dist::WritebackDirty          4328                       # Transaction distribution
system.l2bus.trans_dist::CleanEvict             24096                       # Transaction distribution
system.l2bus.trans_dist::HardPFReq               1175                       # Transaction distribution
system.l2bus.trans_dist::ReadExReq               2288                       # Transaction distribution
system.l2bus.trans_dist::ReadExResp              2288                       # Transaction distribution
system.l2bus.trans_dist::ReadSharedReq          17666                       # Transaction distribution
system.l2bus.pkt_count_system.cpu.icache.mem_side::system.l2cache.cpu_side         7533                       # Packet count per connected master and slave (bytes)
system.l2bus.pkt_count_system.cpu.dcache.mem_side::system.l2cache.cpu_side        51047                       # Packet count per connected master and slave (bytes)
system.l2bus.pkt_count::total                   58580                       # Packet count per connected master and slave (bytes)
system.l2bus.pkt_size_system.cpu.icache.mem_side::system.l2cache.cpu_side       166080                       # Cumulative packet size per connected master and slave (bytes)
system.l2bus.pkt_size_system.cpu.dcache.mem_side::system.l2cache.cpu_side      1301504                       # Cumulative packet size per connected master and slave (bytes)
system.l2bus.pkt_size::total                  1467584                       # Cumulative packet size per connected master and slave (bytes)
system.l2bus.snoops                             10927                       # Total snoops (count)
system.l2bus.snoopTraffic                       86464                       # Total snoop traffic (bytes)
system.l2bus.snoop_fanout::samples              30879                       # Request fanout histogram
system.l2bus.snoop_fanout::mean              0.014703                       # Request fanout histogram
system.l2bus.snoop_fanout::stdev             0.120361                       # Request fanout histogram
system.l2bus.snoop_fanout::underflows               0      0.00%      0.00% # Request fanout histogram
system.l2bus.snoop_fanout::0                    30425     98.53%     98.53% # Request fanout histogram
system.l2bus.snoop_fanout::1                      454      1.47%    100.00% # Request fanout histogram
system.l2bus.snoop_fanout::2                        0      0.00%    100.00% # Request fanout histogram
system.l2bus.snoop_fanout::overflows                0      0.00%    100.00% # Request fanout histogram
system.l2bus.snoop_fanout::min_value                0                       # Request fanout histogram
system.l2bus.snoop_fanout::max_value                1                       # Request fanout histogram
system.l2bus.snoop_fanout::total                30879                       # Request fanout histogram
system.l2bus.respLayer1.occupancy            20829597                       # Layer occupancy (ticks)
system.l2bus.respLayer1.utilization               1.9                       # Layer utilization (%)
system.l2bus.reqLayer0.occupancy             19390682                       # Layer occupancy (ticks)
system.l2bus.reqLayer0.utilization                1.7                       # Layer utilization (%)
system.l2bus.respLayer0.occupancy             3116799                       # Layer occupancy (ticks)
system.l2bus.respLayer0.utilization               0.3                       # Layer utilization (%)
system.clk_domain.clock                           400                       # Clock period in ticks
system.clk_domain.voltage_domain.voltage            1                       # Voltage in Volts
system.cpu.pwrStateResidencyTicks::ON      1122050400                       # Cumulative time (in ticks) in various power states
system.cpu.icache.pwrStateResidencyTicks::UNDEFINED   1122050400                       # Cumulative time (in ticks) in various power states
system.cpu.icache.demand_hits::.cpu.inst       256041                       # number of demand (read+write) hits
system.cpu.icache.demand_hits::total           256041                       # number of demand (read+write) hits
system.cpu.icache.overall_hits::.cpu.inst       256041                       # number of overall hits
system.cpu.icache.overall_hits::total          256041                       # number of overall hits
system.cpu.icache.demand_misses::.cpu.inst         3261                       # number of demand (read+write) misses
system.cpu.icache.demand_misses::total           3261                       # number of demand (read+write) misses
system.cpu.icache.overall_misses::.cpu.inst         3261                       # number of overall misses
system.cpu.icache.overall_misses::total          3261                       # number of overall misses
system.cpu.icache.demand_miss_latency::.cpu.inst    166103600                       # number of demand (read+write) miss cycles
system.cpu.icache.demand_miss_latency::total    166103600                       # number of demand (read+write) miss cycles
system.cpu.icache.overall_miss_latency::.cpu.inst    166103600                       # number of overall miss cycles
system.cpu.icache.overall_miss_latency::total    166103600                       # number of overall miss cycles
system.cpu.icache.demand_accesses::.cpu.inst       259302                       # number of demand (read+write) accesses
system.cpu.icache.demand_accesses::total       259302                       # number of demand (read+write) accesses
system.cpu.icache.overall_accesses::.cpu.inst       259302                       # number of overall (read+write) accesses
system.cpu.icache.overall_accesses::total       259302                       # number of overall (read+write) accesses
system.cpu.icache.demand_miss_rate::.cpu.inst     0.012576                       # miss rate for demand accesses
system.cpu.icache.demand_miss_rate::total     0.012576                       # miss rate for demand accesses
system.cpu.icache.overall_miss_rate::.cpu.inst     0.012576                       # miss rate for overall accesses
system.cpu.icache.overall_miss_rate::total     0.012576                       # miss rate for overall accesses
system.cpu.icache.demand_avg_miss_latency::.cpu.inst 50936.399877                       # average overall miss latency
system.cpu.icache.demand_avg_miss_latency::total 50936.399877                       # average overall miss latency
system.cpu.icache.overall_avg_miss_latency::.cpu.inst 50936.399877                       # average overall miss latency
system.cpu.icache.overall_avg_miss_latency::total 50936.399877                       # average overall miss latency
system.cpu.icache.blocked_cycles::no_mshrs           52                       # number of cycles access was blocked
system.cpu.icache.blocked_cycles::no_targets            0                       # number of cycles access was blocked
system.cpu.icache.blocked::no_mshrs                 3                       # number of cycles access was blocked
system.cpu.icache.blocked::no_targets               0                       # number of cycles access was blocked
system.cpu.icache.avg_blocked_cycles::no_mshrs    17.333333                       # average number of cycles each access was blocked
system.cpu.icache.avg_blocked_cycles::no_targets          nan                       # average number of cycles each access was blocked
system.cpu.icache.demand_mshr_hits::.cpu.inst          664                       # number of demand (read+write) MSHR hits
system.cpu.icache.demand_mshr_hits::total          664                       # number of demand (read+write) MSHR hits
system.cpu.icache.overall_mshr_hits::.cpu.inst          664                       # number of overall MSHR hits
system.cpu.icache.overall_mshr_hits::total          664                       # number of overall MSHR hits
system.cpu.icache.demand_mshr_misses::.cpu.inst         2597                       # number of demand (read+write) MSHR misses
system.cpu.icache.demand_mshr_misses::total         2597                       # number of demand (read+write) MSHR misses
system.cpu.icache.overall_mshr_misses::.cpu.inst         2597                       # number of overall MSHR misses
system.cpu.icache.overall_mshr_misses::total         2597                       # number of overall MSHR misses
system.cpu.icache.demand_mshr_miss_latency::.cpu.inst    133068800                       # number of demand (read+write) MSHR miss cycles
system.cpu.icache.demand_mshr_miss_latency::total    133068800                       # number of demand (read+write) MSHR miss cycles
system.cpu.icache.overall_mshr_miss_latency::.cpu.inst    133068800                       # number of overall MSHR miss cycles
system.cpu.icache.overall_mshr_miss_latency::total    133068800                       # number of overall MSHR miss cycles
system.cpu.icache.demand_mshr_miss_rate::.cpu.inst     0.010015                       # mshr miss rate for demand accesses
system.cpu.icache.demand_mshr_miss_rate::total     0.010015                       # mshr miss rate for demand accesses
system.cpu.icache.overall_mshr_miss_rate::.cpu.inst     0.010015                       # mshr miss rate for overall accesses
system.cpu.icache.overall_mshr_miss_rate::total     0.010015                       # mshr miss rate for overall accesses
system.cpu.icache.demand_avg_mshr_miss_latency::.cpu.inst 51239.430112                       # average overall mshr miss latency
system.cpu.icache.demand_avg_mshr_miss_latency::total 51239.430112                       # average overall mshr miss latency
system.cpu.icache.overall_avg_mshr_miss_latency::.cpu.inst 51239.430112                       # average overall mshr miss latency
system.cpu.icache.overall_avg_mshr_miss_latency::total 51239.430112                       # average overall mshr miss latency
system.cpu.icache.replacements                   2341                       # number of replacements
system.cpu.icache.ReadReq_hits::.cpu.inst       256041                       # number of ReadReq hits
system.cpu.icache.ReadReq_hits::total          256041                       # number of ReadReq hits
system.cpu.icache.ReadReq_misses::.cpu.inst         3261                       # number of ReadReq misses
system.cpu.icache.ReadReq_misses::total          3261                       # number of ReadReq misses
system.cpu.icache.ReadReq_miss_latency::.cpu.inst    166103600                       # number of ReadReq miss cycles
system.cpu.icache.ReadReq_miss_latency::total    166103600                       # number of ReadReq miss cycles
system.cpu.icache.ReadReq_accesses::.cpu.inst       259302                       # number of ReadReq accesses(hits+misses)
system.cpu.icache.ReadReq_accesses::total       259302                       # number of ReadReq accesses(hits+misses)
system.cpu.icache.ReadReq_miss_rate::.cpu.inst     0.012576                       # miss rate for ReadReq accesses
system.cpu.icache.ReadReq_miss_rate::total     0.012576                       # miss rate for ReadReq accesses
system.cpu.icache.ReadReq_avg_miss_latency::.cpu.inst 50936.399877                       # average ReadReq miss latency
system.cpu.icache.ReadReq_avg_miss_latency::total 50936.399877                       # average ReadReq miss latency
system.cpu.icache.ReadReq_mshr_hits::.cpu.inst          664                       # number of ReadReq MSHR hits
system.cpu.icache.ReadReq_mshr_hits::total          664                       # number of ReadReq MSHR hits
system.cpu.icache.ReadReq_mshr_misses::.cpu.inst         2597                       # number of ReadReq MSHR misses
system.cpu.icache.ReadReq_mshr_misses::total         2597                       # number of ReadReq MSHR misses
system.cpu.icache.ReadReq_mshr_miss_latency::.cpu.inst    133068800                       # number of ReadReq MSHR miss cycles
system.cpu.icache.ReadReq_mshr_miss_latency::total    133068800                       # number of ReadReq MSHR miss cycles
system.cpu.icache.ReadReq_mshr_miss_rate::.cpu.inst     0.010015                       # mshr miss rate for ReadReq accesses
system.cpu.icache.ReadReq_mshr_miss_rate::total     0.010015                       # mshr miss rate for ReadReq accesses
system.cpu.icache.ReadReq_avg_mshr_miss_latency::.cpu.inst 51239.430112                       # average ReadReq mshr miss latency
system.cpu.icache.ReadReq_avg_mshr_miss_latency::total 51239.430112                       # average ReadReq mshr miss latency
system.cpu.icache.prefetcher.pwrStateResidencyTicks::UNDEFINED   1122050400                       # Cumulative time (in ticks) in various power states
system.cpu.icache.tags.pwrStateResidencyTicks::UNDEFINED   1122050400                       # Cumulative time (in ticks) in various power states
system.cpu.icache.tags.tagsinuse           253.530710                       # Cycle average of tags in use
system.cpu.icache.tags.total_refs              200630                       # Total number of references to valid blocks.
system.cpu.icache.tags.sampled_refs              2341                       # Sample count of references to valid blocks.
system.cpu.icache.tags.avg_refs             85.702691                       # Average number of references to valid blocks.
system.cpu.icache.tags.warmup_cycle             66400                       # Cycle when the warmup percentage was hit.
system.cpu.icache.tags.occ_blocks::.cpu.inst   253.530710                       # Average occupied blocks per requestor
system.cpu.icache.tags.occ_percent::.cpu.inst     0.990354                       # Average percentage of cache occupancy
system.cpu.icache.tags.occ_percent::total     0.990354                       # Average percentage of cache occupancy
system.cpu.icache.tags.occ_task_id_blocks::1024          256                       # Occupied blocks per task id
system.cpu.icache.tags.age_task_id_blocks_1024::0           80                       # Occupied blocks per task id
system.cpu.icache.tags.age_task_id_blocks_1024::1          118                       # Occupied blocks per task id
system.cpu.icache.tags.age_task_id_blocks_1024::2           51                       # Occupied blocks per task id
system.cpu.icache.tags.age_task_id_blocks_1024::3            7                       # Occupied blocks per task id
system.cpu.icache.tags.occ_task_id_percent::1024            1                       # Percentage of cache occupancy per task id
system.cpu.icache.tags.tag_accesses            521201                       # Number of tag accesses
system.cpu.icache.tags.data_accesses           521201                       # Number of data accesses
system.cpu.dtb.walker.pwrStateResidencyTicks::UNDEFINED   1122050400                       # Cumulative time (in ticks) in various power states
system.cpu.interrupts.clk_domain.clock           6400                       # Clock period in ticks
system.cpu.itb.walker.pwrStateResidencyTicks::UNDEFINED   1122050400                       # Cumulative time (in ticks) in various power states
system.cpu.dcache.pwrStateResidencyTicks::UNDEFINED   1122050400                       # Cumulative time (in ticks) in various power states
system.cpu.dcache.demand_hits::.cpu.data       692578                       # number of demand (read+write) hits
system.cpu.dcache.demand_hits::total           692578                       # number of demand (read+write) hits
system.cpu.dcache.overall_hits::.cpu.data       692578                       # number of overall hits
system.cpu.dcache.overall_hits::total          692578                       # number of overall hits
system.cpu.dcache.demand_misses::.cpu.data        34732                       # number of demand (read+write) misses
system.cpu.dcache.demand_misses::total          34732                       # number of demand (read+write) misses
system.cpu.dcache.overall_misses::.cpu.data        34732                       # number of overall misses
system.cpu.dcache.overall_misses::total         34732                       # number of overall misses
system.cpu.dcache.demand_miss_latency::.cpu.data   1699398400                       # number of demand (read+write) miss cycles
system.cpu.dcache.demand_miss_latency::total   1699398400                       # number of demand (read+write) miss cycles
system.cpu.dcache.overall_miss_latency::.cpu.data   1699398400                       # number of overall miss cycles
system.cpu.dcache.overall_miss_latency::total   1699398400                       # number of overall miss cycles
system.cpu.dcache.demand_accesses::.cpu.data       727310                       # number of demand (read+write) accesses
system.cpu.dcache.demand_accesses::total       727310                       # number of demand (read+write) accesses
system.cpu.dcache.overall_accesses::.cpu.data       727310                       # number of overall (read+write) accesses
system.cpu.dcache.overall_accesses::total       727310                       # number of overall (read+write) accesses
system.cpu.dcache.demand_miss_rate::.cpu.data     0.047754                       # miss rate for demand accesses
system.cpu.dcache.demand_miss_rate::total     0.047754                       # miss rate for demand accesses
system.cpu.dcache.overall_miss_rate::.cpu.data     0.047754                       # miss rate for overall accesses
system.cpu.dcache.overall_miss_rate::total     0.047754                       # miss rate for overall accesses
system.cpu.dcache.demand_avg_miss_latency::.cpu.data 48928.895543                       # average overall miss latency
system.cpu.dcache.demand_avg_miss_latency::total 48928.895543                       # average overall miss latency
system.cpu.dcache.overall_avg_miss_latency::.cpu.data 48928.895543                       # average overall miss latency
system.cpu.dcache.overall_avg_miss_latency::total 48928.895543                       # average overall miss latency
system.cpu.dcache.blocked_cycles::no_mshrs        30319                       # number of cycles access was blocked
system.cpu.dcache.blocked_cycles::no_targets          175                       # number of cycles access was blocked
system.cpu.dcache.blocked::no_mshrs               767                       # number of cycles access was blocked
system.cpu.dcache.blocked::no_targets               2                       # number of cycles access was blocked
system.cpu.dcache.avg_blocked_cycles::no_mshrs    39.529335                       # average number of cycles each access was blocked
system.cpu.dcache.avg_blocked_cycles::no_targets    87.500000                       # average number of cycles each access was blocked
system.cpu.dcache.unused_prefetches              1917                       # number of HardPF blocks evicted w/o reference
system.cpu.dcache.writebacks::.writebacks         2979                       # number of writebacks
system.cpu.dcache.writebacks::total              2979                       # number of writebacks
system.cpu.dcache.demand_mshr_hits::.cpu.data        22129                       # number of demand (read+write) MSHR hits
system.cpu.dcache.demand_mshr_hits::total        22129                       # number of demand (read+write) MSHR hits
system.cpu.dcache.overall_mshr_hits::.cpu.data        22129                       # number of overall MSHR hits
system.cpu.dcache.overall_mshr_hits::total        22129                       # number of overall MSHR hits
system.cpu.dcache.demand_mshr_misses::.cpu.data        12603                       # number of demand (read+write) MSHR misses
system.cpu.dcache.demand_mshr_misses::total        12603                       # number of demand (read+write) MSHR misses
system.cpu.dcache.overall_mshr_misses::.cpu.data        12603                       # number of overall MSHR misses
system.cpu.dcache.overall_mshr_misses::.cpu.dcache.prefetcher         4754                       # number of overall MSHR misses
system.cpu.dcache.overall_mshr_misses::total        17357                       # number of overall MSHR misses
system.cpu.dcache.demand_mshr_miss_latency::.cpu.data    587174000                       # number of demand (read+write) MSHR miss cycles
system.cpu.dcache.demand_mshr_miss_latency::total    587174000                       # number of demand (read+write) MSHR miss cycles
system.cpu.dcache.overall_mshr_miss_latency::.cpu.data    587174000                       # number of overall MSHR miss cycles
system.cpu.dcache.overall_mshr_miss_latency::.cpu.dcache.prefetcher    259933722                       # number of overall MSHR miss cycles
system.cpu.dcache.overall_mshr_miss_latency::total    847107722                       # number of overall MSHR miss cycles
system.cpu.dcache.demand_mshr_miss_rate::.cpu.data     0.017328                       # mshr miss rate for demand accesses
system.cpu.dcache.demand_mshr_miss_rate::total     0.017328                       # mshr miss rate for demand accesses
system.cpu.dcache.overall_mshr_miss_rate::.cpu.data     0.017328                       # mshr miss rate for overall accesses
system.cpu.dcache.overall_mshr_miss_rate::.cpu.dcache.prefetcher          inf                       # mshr miss rate for overall accesses
system.cpu.dcache.overall_mshr_miss_rate::total     0.023865                       # mshr miss rate for overall accesses
system.cpu.dcache.demand_avg_mshr_miss_latency::.cpu.data 46590.018250                       # average overall mshr miss latency
system.cpu.dcache.demand_avg_mshr_miss_latency::total 46590.018250                       # average overall mshr miss latency
system.cpu.dcache.overall_avg_mshr_miss_latency::.cpu.data 46590.018250                       # average overall mshr miss latency
system.cpu.dcache.overall_avg_mshr_miss_latency::.cpu.dcache.prefetcher 54676.845183                       # average overall mshr miss latency
system.cpu.dcache.overall_avg_mshr_miss_latency::total 48804.961802                       # average overall mshr miss latency
system.cpu.dcache.replacements                  16333                       # number of replacements
system.cpu.dcache.ReadReq_hits::.cpu.data       511270                       # number of ReadReq hits
system.cpu.dcache.ReadReq_hits::total          511270                       # number of ReadReq hits
system.cpu.dcache.ReadReq_misses::.cpu.data        32410                       # number of ReadReq misses
system.cpu.dcache.ReadReq_misses::total         32410                       # number of ReadReq misses
system.cpu.dcache.ReadReq_miss_latency::.cpu.data   1580667600                       # number of ReadReq miss cycles
system.cpu.dcache.ReadReq_miss_latency::total   1580667600                       # number of ReadReq miss cycles
system.cpu.dcache.ReadReq_accesses::.cpu.data       543680                       # number of ReadReq accesses(hits+misses)
system.cpu.dcache.ReadReq_accesses::total       543680                       # number of ReadReq accesses(hits+misses)
system.cpu.dcache.ReadReq_miss_rate::.cpu.data     0.059612                       # miss rate for ReadReq accesses
system.cpu.dcache.ReadReq_miss_rate::total     0.059612                       # miss rate for ReadReq accesses
system.cpu.dcache.ReadReq_avg_miss_latency::.cpu.data 48770.984264                       # average ReadReq miss latency
system.cpu.dcache.ReadReq_avg_miss_latency::total 48770.984264                       # average ReadReq miss latency
system.cpu.dcache.ReadReq_mshr_hits::.cpu.data        22095                       # number of ReadReq MSHR hits
system.cpu.dcache.ReadReq_mshr_hits::total        22095                       # number of ReadReq MSHR hits
system.cpu.dcache.ReadReq_mshr_misses::.cpu.data        10315                       # number of ReadReq MSHR misses
system.cpu.dcache.ReadReq_mshr_misses::total        10315                       # number of ReadReq MSHR misses
system.cpu.dcache.ReadReq_mshr_miss_latency::.cpu.data    471637200                       # number of ReadReq MSHR miss cycles
system.cpu.dcache.ReadReq_mshr_miss_latency::total    471637200                       # number of ReadReq MSHR miss cycles
system.cpu.dcache.ReadReq_mshr_miss_rate::.cpu.data     0.018973                       # mshr miss rate for ReadReq accesses
system.cpu.dcache.ReadReq_mshr_miss_rate::total     0.018973                       # mshr miss rate for ReadReq accesses
system.cpu.dcache.ReadReq_avg_mshr_miss_latency::.cpu.data 45723.431895                       # average ReadReq mshr miss latency
system.cpu.dcache.ReadReq_avg_mshr_miss_latency::total 45723.431895                       # average ReadReq mshr miss latency
system.cpu.dcache.WriteReq_hits::.cpu.data       181308                       # number of WriteReq hits
system.cpu.dcache.WriteReq_hits::total         181308                       # number of WriteReq hits
system.cpu.dcache.WriteReq_misses::.cpu.data         2322                       # number of WriteReq misses
system.cpu.dcache.WriteReq_misses::total         2322                       # number of WriteReq misses
system.cpu.dcache.WriteReq_miss_latency::.cpu.data    118730800                       # number of WriteReq miss cycles
system.cpu.dcache.WriteReq_miss_latency::total    118730800                       # number of WriteReq miss cycles
system.cpu.dcache.WriteReq_accesses::.cpu.data       183630                       # number of WriteReq accesses(hits+misses)
system.cpu.dcache.WriteReq_accesses::total       183630                       # number of WriteReq accesses(hits+misses)
system.cpu.dcache.WriteReq_miss_rate::.cpu.data     0.012645                       # miss rate for WriteReq accesses
system.cpu.dcache.WriteReq_miss_rate::total     0.012645                       # miss rate for WriteReq accesses
system.cpu.dcache.WriteReq_avg_miss_latency::.cpu.data 51132.988803                       # average WriteReq miss latency
system.cpu.dcache.WriteReq_avg_miss_latency::total 51132.988803                       # average WriteReq miss latency
system.cpu.dcache.WriteReq_mshr_hits::.cpu.data           34                       # number of WriteReq MSHR hits
system.cpu.dcache.WriteReq_mshr_hits::total           34                       # number of WriteReq MSHR hits
system.cpu.dcache.WriteReq_mshr_misses::.cpu.data         2288                       # number of WriteReq MSHR misses
system.cpu.dcache.WriteReq_mshr_misses::total         2288                       # number of WriteReq MSHR misses
system.cpu.dcache.WriteReq_mshr_miss_latency::.cpu.data    115536800                       # number of WriteReq MSHR miss cycles
[...]
system.l2cache.overall_mshr_miss_rate::.cpu.data     0.485437                       # mshr miss rate for overall accesses
system.l2cache.overall_mshr_miss_rate::.cpu.dcache.prefetcher     0.348101                       # mshr miss rate for overall accesses
system.l2cache.overall_mshr_miss_rate::.l2cache.prefetcher          inf                       # mshr miss rate for overall accesses
system.l2cache.overall_mshr_miss_rate::total     0.475283                       # mshr miss rate for overall accesses
system.l2cache.demand_avg_mshr_miss_latency::.cpu.inst 59405.275779                       # average overall mshr miss latency
system.l2cache.demand_avg_mshr_miss_latency::.cpu.data 60837.333333                       # average overall mshr miss latency
system.l2cache.demand_avg_mshr_miss_latency::.cpu.dcache.prefetcher 60122.872727                       # average overall mshr miss latency
system.l2cache.demand_avg_mshr_miss_latency::total 60012.898964                       # average overall mshr miss latency
system.l2cache.overall_avg_mshr_miss_latency::.cpu.inst 59405.275779                       # average overall mshr miss latency
system.l2cache.overall_avg_mshr_miss_latency::.cpu.data 60837.333333                       # average overall mshr miss latency
system.l2cache.overall_avg_mshr_miss_latency::.cpu.dcache.prefetcher 60122.872727                       # average overall mshr miss latency
system.l2cache.overall_avg_mshr_miss_latency::.l2cache.prefetcher 59952.500000                       # average overall mshr miss latency
system.l2cache.overall_avg_mshr_miss_latency::total 60010.931078                       # average overall mshr miss latency
system.l2cache.replacements                       806                       # number of replacements
system.l2cache.WritebackDirty_hits::.writebacks          485                       # number of WritebackDirty hits
system.l2cache.WritebackDirty_hits::total          485                       # number of WritebackDirty hits
system.l2cache.WritebackDirty_accesses::.writebacks          485                       # number of WritebackDirty accesses(hits+misses)
system.l2cache.WritebackDirty_accesses::total          485                       # number of WritebackDirty accesses(hits+misses)
system.l2cache.CleanEvict_mshr_misses::.writebacks           19                       # number of CleanEvict MSHR misses
system.l2cache.CleanEvict_mshr_misses::total           19                       # number of CleanEvict MSHR misses
system.l2cache.CleanEvict_mshr_miss_rate::.writebacks          inf                       # mshr miss rate for CleanEvict accesses
system.l2cache.CleanEvict_mshr_miss_rate::total          inf                       # mshr miss rate for CleanEvict accesses
system.l2cache.HardPFReq_mshr_misses::.l2cache.prefetcher           26                       # number of HardPFReq MSHR misses
system.l2cache.HardPFReq_mshr_misses::total           26                       # number of HardPFReq MSHR misses
system.l2cache.HardPFReq_mshr_miss_latency::.l2cache.prefetcher      1558765                       # number of HardPFReq MSHR miss cycles
system.l2cache.HardPFReq_mshr_miss_latency::total      1558765                       # number of HardPFReq MSHR miss cycles
system.l2cache.HardPFReq_mshr_miss_rate::.l2cache.prefetcher          inf                       # mshr miss rate for HardPFReq accesses
system.l2cache.HardPFReq_mshr_miss_rate::total          inf                       # mshr miss rate for HardPFReq accesses
system.l2cache.HardPFReq_avg_mshr_miss_latency::.l2cache.prefetcher 59952.500000                       # average HardPFReq mshr miss latency
system.l2cache.HardPFReq_avg_mshr_miss_latency::total 59952.500000                       # average HardPFReq mshr miss latency
system.l2cache.UpgradeReq_hits::.cpu.data            2                       # number of UpgradeReq hits
system.l2cache.UpgradeReq_hits::total               2                       # number of UpgradeReq hits
system.l2cache.UpgradeReq_accesses::.cpu.data            2                       # number of UpgradeReq accesses(hits+misses)
system.l2cache.UpgradeReq_accesses::total            2                       # number of UpgradeReq accesses(hits+misses)
system.l2cache.ReadExReq_hits::.cpu.data           38                       # number of ReadExReq hits
system.l2cache.ReadExReq_hits::total               38                       # number of ReadExReq hits
system.l2cache.ReadExReq_misses::.cpu.data          111                       # number of ReadExReq misses
system.l2cache.ReadExReq_misses::total            111                       # number of ReadExReq misses
system.l2cache.ReadExReq_miss_latency::.cpu.data      7805600                       # number of ReadExReq miss cycles
system.l2cache.ReadExReq_miss_latency::total      7805600                       # number of ReadExReq miss cycles
system.l2cache.ReadExReq_accesses::.cpu.data          149                       # number of ReadExReq accesses(hits+misses)
system.l2cache.ReadExReq_accesses::total          149                       # number of ReadExReq accesses(hits+misses)
system.l2cache.ReadExReq_miss_rate::.cpu.data     0.744966                       # miss rate for ReadExReq accesses
system.l2cache.ReadExReq_miss_rate::total     0.744966                       # miss rate for ReadExReq accesses
system.l2cache.ReadExReq_avg_miss_latency::.cpu.data 70320.720721                       # average ReadExReq miss latency
system.l2cache.ReadExReq_avg_miss_latency::total 70320.720721                       # average ReadExReq miss latency
system.l2cache.ReadExReq_mshr_misses::.cpu.data          111                       # number of ReadExReq MSHR misses
system.l2cache.ReadExReq_mshr_misses::total          111                       # number of ReadExReq MSHR misses
system.l2cache.ReadExReq_mshr_miss_latency::.cpu.data      6917600                       # number of ReadExReq MSHR miss cycles
system.l2cache.ReadExReq_mshr_miss_latency::total      6917600                       # number of ReadExReq MSHR miss cycles
system.l2cache.ReadExReq_mshr_miss_rate::.cpu.data     0.744966                       # mshr miss rate for ReadExReq accesses
system.l2cache.ReadExReq_mshr_miss_rate::total     0.744966                       # mshr miss rate for ReadExReq accesses
system.l2cache.ReadExReq_avg_mshr_miss_latency::.cpu.data 62320.720721                       # average ReadExReq mshr miss latency
system.l2cache.ReadExReq_avg_mshr_miss_latency::total 62320.720721                       # average ReadExReq mshr miss latency
system.l2cache.ReadSharedReq_hits::.cpu.inst          486                       # number of ReadSharedReq hits
system.l2cache.ReadSharedReq_hits::.cpu.data          279                       # number of ReadSharedReq hits
system.l2cache.ReadSharedReq_hits::.cpu.dcache.prefetcher          102                       # number of ReadSharedReq hits
system.l2cache.ReadSharedReq_hits::total          867                       # number of ReadSharedReq hits
system.l2cache.ReadSharedReq_misses::.cpu.inst          417                       # number of ReadSharedReq misses
system.l2cache.ReadSharedReq_misses::.cpu.data          190                       # number of ReadSharedReq misses
system.l2cache.ReadSharedReq_misses::.cpu.dcache.prefetcher           56                       # number of ReadSharedReq misses
system.l2cache.ReadSharedReq_misses::total          663                       # number of ReadSharedReq misses
system.l2cache.ReadSharedReq_miss_latency::.cpu.inst     28100000                       # number of ReadSharedReq miss cycles
system.l2cache.ReadSharedReq_miss_latency::.cpu.data     12902000                       # number of ReadSharedReq miss cycles
system.l2cache.ReadSharedReq_miss_latency::.cpu.dcache.prefetcher      3770757                       # number of ReadSharedReq miss cycles
system.l2cache.ReadSharedReq_miss_latency::total     44772757                       # number of ReadSharedReq miss cycles
system.l2cache.ReadSharedReq_accesses::.cpu.inst          903                       # number of ReadSharedReq accesses(hits+misses)
system.l2cache.ReadSharedReq_accesses::.cpu.data          469                       # number of ReadSharedReq accesses(hits+misses)
system.l2cache.ReadSharedReq_accesses::.cpu.dcache.prefetcher          158                       # number of ReadSharedReq accesses(hits+misses)
system.l2cache.ReadSharedReq_accesses::total         1530                       # number of ReadSharedReq accesses(hits+misses)
system.l2cache.ReadSharedReq_miss_rate::.cpu.inst     0.461794                       # miss rate for ReadSharedReq accesses
system.l2cache.ReadSharedReq_miss_rate::.cpu.data     0.405117                       # miss rate for ReadSharedReq accesses
system.l2cache.ReadSharedReq_miss_rate::.cpu.dcache.prefetcher     0.354430                       # miss rate for ReadSharedReq accesses
system.l2cache.ReadSharedReq_miss_rate::total     0.433333                       # miss rate for ReadSharedReq accesses
system.l2cache.ReadSharedReq_avg_miss_latency::.cpu.inst 67386.091127                       # average ReadSharedReq miss latency
system.l2cache.ReadSharedReq_avg_miss_latency::.cpu.data 67905.263158                       # average ReadSharedReq miss latency
system.l2cache.ReadSharedReq_avg_miss_latency::.cpu.dcache.prefetcher 67334.946429                       # average ReadSharedReq miss latency
system.l2cache.ReadSharedReq_avg_miss_latency::total 67530.553544                       # average ReadSharedReq miss latency
system.l2cache.ReadSharedReq_mshr_hits::.cpu.data            1                       # number of ReadSharedReq MSHR hits
system.l2cache.ReadSharedReq_mshr_hits::.cpu.dcache.prefetcher            1                       # number of ReadSharedReq MSHR hits
system.l2cache.ReadSharedReq_mshr_hits::total            2                       # number of ReadSharedReq MSHR hits
system.l2cache.ReadSharedReq_mshr_misses::.cpu.inst          417                       # number of ReadSharedReq MSHR misses
system.l2cache.ReadSharedReq_mshr_misses::.cpu.data          189                       # number of ReadSharedReq MSHR misses
system.l2cache.ReadSharedReq_mshr_misses::.cpu.dcache.prefetcher           55                       # number of ReadSharedReq MSHR misses
system.l2cache.ReadSharedReq_mshr_misses::total          661                       # number of ReadSharedReq MSHR misses
system.l2cache.ReadSharedReq_mshr_miss_latency::.cpu.inst     24772000                       # number of ReadSharedReq MSHR miss cycles
system.l2cache.ReadSharedReq_mshr_miss_latency::.cpu.data     11333600                       # number of ReadSharedReq MSHR miss cycles
system.l2cache.ReadSharedReq_mshr_miss_latency::.cpu.dcache.prefetcher      3306758                       # number of ReadSharedReq MSHR miss cycles
system.l2cache.ReadSharedReq_mshr_miss_latency::total     39412358                       # number of ReadSharedReq MSHR miss cycles
system.l2cache.ReadSharedReq_mshr_miss_rate::.cpu.inst     0.461794                       # mshr miss rate for ReadSharedReq accesses
system.l2cache.ReadSharedReq_mshr_miss_rate::.cpu.data     0.402985                       # mshr miss rate for ReadSharedReq accesses
system.l2cache.ReadSharedReq_mshr_miss_rate::.cpu.dcache.prefetcher     0.348101                       # mshr miss rate for ReadSharedReq accesses
system.l2cache.ReadSharedReq_mshr_miss_rate::total     0.432026                       # mshr miss rate for ReadSharedReq accesses
system.l2cache.ReadSharedReq_avg_mshr_miss_latency::.cpu.inst 59405.275779                       # average ReadSharedReq mshr miss latency
system.l2cache.ReadSharedReq_avg_mshr_miss_latency::.cpu.data 59966.137566                       # average ReadSharedReq mshr miss latency
system.l2cache.ReadSharedReq_avg_mshr_miss_latency::.cpu.dcache.prefetcher 60122.872727                       # average ReadSharedReq mshr miss latency
system.l2cache.ReadSharedReq_avg_mshr_miss_latency::total 59625.352496                       # average ReadSharedReq mshr miss latency
system.l2cache.prefetcher.pwrStateResidencyTicks::UNDEFINED    711475200                       # Cumulative time (in ticks) in various power states
system.l2cache.tags.pwrStateResidencyTicks::UNDEFINED    711475200                       # Cumulative time (in ticks) in various power states
system.l2cache.tags.tagsinuse                    4096                       # Cycle average of tags in use
system.l2cache.tags.total_refs                  15589                       # Total number of references to valid blocks.
system.l2cache.tags.sampled_refs                 4902                       # Sample count of references to valid blocks.
system.l2cache.tags.avg_refs                 3.180131                       # Average number of references to valid blocks.
system.l2cache.tags.warmup_cycle                    0                       # Cycle when the warmup percentage was hit.
system.l2cache.tags.occ_blocks::.writebacks    49.379223                       # Average occupied blocks per requestor
system.l2cache.tags.occ_blocks::.cpu.inst  1040.494391                       # Average occupied blocks per requestor
system.l2cache.tags.occ_blocks::.cpu.data  1858.884213                       # Average occupied blocks per requestor
system.l2cache.tags.occ_blocks::.cpu.dcache.prefetcher   879.144968                       # Average occupied blocks per requestor
system.l2cache.tags.occ_blocks::.l2cache.prefetcher   268.097205                       # Average occupied blocks per requestor
system.l2cache.tags.occ_percent::.writebacks     0.012055                       # Average percentage of cache occupancy
system.l2cache.tags.occ_percent::.cpu.inst     0.254027                       # Average percentage of cache occupancy
system.l2cache.tags.occ_percent::.cpu.data     0.453829                       # Average percentage of cache occupancy
system.l2cache.tags.occ_percent::.cpu.dcache.prefetcher     0.214635                       # Average percentage of cache occupancy
system.l2cache.tags.occ_percent::.l2cache.prefetcher     0.065453                       # Average percentage of cache occupancy
system.l2cache.tags.occ_percent::total              1                       # Average percentage of cache occupancy
system.l2cache.tags.occ_task_id_blocks::1022         1066                       # Occupied blocks per task id
system.l2cache.tags.occ_task_id_blocks::1024         3030                       # Occupied blocks per task id
system.l2cache.tags.age_task_id_blocks_1022::0           13                       # Occupied blocks per task id
system.l2cache.tags.age_task_id_blocks_1022::2           69                       # Occupied blocks per task id
system.l2cache.tags.age_task_id_blocks_1022::3          984                       # Occupied blocks per task id
system.l2cache.tags.age_task_id_blocks_1024::0          175                       # Occupied blocks per task id
system.l2cache.tags.age_task_id_blocks_1024::1           41                       # Occupied blocks per task id
system.l2cache.tags.age_task_id_blocks_1024::2          508                       # Occupied blocks per task id
system.l2cache.tags.age_task_id_blocks_1024::3         2306                       # Occupied blocks per task id
system.l2cache.tags.occ_task_id_percent::1022     0.260254                       # Percentage of cache occupancy per task id
system.l2cache.tags.occ_task_id_percent::1024     0.739746                       # Percentage of cache occupancy per task id
system.l2cache.tags.tag_accesses                27622                       # Number of tag accesses
system.l2cache.tags.data_accesses               27622                       # Number of data accesses
system.mem_ctrl.pwrStateResidencyTicks::UNDEFINED    711475200                       # Cumulative time (in ticks) in various power states
system.mem_ctrl.bytes_read::.cpu.inst           26624                       # Number of bytes read from this memory
system.mem_ctrl.bytes_read::.cpu.data           19200                       # Number of bytes read from this memory
system.mem_ctrl.bytes_read::.cpu.dcache.prefetcher         3520                       # Number of bytes read from this memory
system.mem_ctrl.bytes_read::.l2cache.prefetcher         1664                       # Number of bytes read from this memory
system.mem_ctrl.bytes_read::total               51008                       # Number of bytes read from this memory
system.mem_ctrl.bytes_inst_read::.cpu.inst        26624                       # Number of instructions bytes read from this memory
system.mem_ctrl.bytes_inst_read::total          26624                       # Number of instructions bytes read from this memory
system.mem_ctrl.bytes_written::.writebacks         3904                       # Number of bytes written to this memory
system.mem_ctrl.bytes_written::total             3904                       # Number of bytes written to this memory
system.mem_ctrl.num_reads::.cpu.inst              416                       # Number of read requests responded to by this memory
system.mem_ctrl.num_reads::.cpu.data              300                       # Number of read requests responded to by this memory
system.mem_ctrl.num_reads::.cpu.dcache.prefetcher           55                       # Number of read requests responded to by this memory
system.mem_ctrl.num_reads::.l2cache.prefetcher           26                       # Number of read requests responded to by this memory
system.mem_ctrl.num_reads::total                  797                       # Number of read requests responded to by this memory
system.mem_ctrl.num_writes::.writebacks            61                       # Number of write requests responded to by this memory
system.mem_ctrl.num_writes::total                  61                       # Number of write requests responded to by this memory
system.mem_ctrl.bw_read::.cpu.inst           37420841                       # Total read bandwidth from this memory (bytes/s)
system.mem_ctrl.bw_read::.cpu.data           26986183                       # Total read bandwidth from this memory (bytes/s)
system.mem_ctrl.bw_read::.cpu.dcache.prefetcher      4947467                       # Total read bandwidth from this memory (bytes/s)
system.mem_ctrl.bw_read::.l2cache.prefetcher      2338803                       # Total read bandwidth from this memory (bytes/s)
system.mem_ctrl.bw_read::total               71693293                       # Total read bandwidth from this memory (bytes/s)
system.mem_ctrl.bw_inst_read::.cpu.inst      37420841                       # Instruction read bandwidth from this memory (bytes/s)
system.mem_ctrl.bw_inst_read::total          37420841                       # Instruction read bandwidth from this memory (bytes/s)
system.mem_ctrl.bw_write::.writebacks         5487191                       # Write bandwidth from this memory (bytes/s)
system.mem_ctrl.bw_write::total               5487191                       # Write bandwidth from this memory (bytes/s)
system.mem_ctrl.bw_total::.writebacks         5487191                       # Total bandwidth to/from this memory (bytes/s)
system.mem_ctrl.bw_total::.cpu.inst          37420841                       # Total bandwidth to/from this memory (bytes/s)
system.mem_ctrl.bw_total::.cpu.data          26986183                       # Total bandwidth to/from this memory (bytes/s)
system.mem_ctrl.bw_total::.cpu.dcache.prefetcher      4947467                       # Total bandwidth to/from this memory (bytes/s)
system.mem_ctrl.bw_total::.l2cache.prefetcher      2338803                       # Total bandwidth to/from this memory (bytes/s)
system.mem_ctrl.bw_total::total              77180484                       # Total bandwidth to/from this memory (bytes/s)

---------- End Simulation Statistics   ----------
