
---------- Begin Simulation Statistics ----------
final_tick                                 3133216000                       # Number of ticks from beginning of simulation (restored from checkpoints and never reset)
host_inst_rate                                 185718                       # Simulator instruction rate (inst/s)
host_mem_usage                                4408904                       # Number of bytes of host memory used
host_op_rate                                   345819                       # Simulator op (including micro ops) rate (op/s)
host_seconds                                    42.54                       # Real time elapsed on the host
host_tick_rate                               73655359                       # Simulator tick rate (ticks/s)
sim_freq                                 1000000000000                       # Frequency of simulated ticks
sim_insts                                     7900208                       # Number of instructions simulated
sim_ops                                      14710756                       # Number of ops (including micro ops) simulated
sim_seconds                                  0.003133                       # Number of seconds simulated
sim_ticks                                  3133216000                       # Number of ticks simulated
system.cpu.branchPred.BTBCorrect                    0                       # Number of correct BTB predictions (this stat may not work properly.
system.cpu.branchPred.BTBHitPct              0.000000                       # BTB Hit Percentage
system.cpu.branchPred.BTBHits                       0                       # Number of BTB hits
system.cpu.branchPred.BTBLookups              1453215                       # Number of BTB lookups
system.cpu.branchPred.RASInCorrect                  9                       # Number of incorrect RAS predictions.
system.cpu.branchPred.condIncorrect             35588                       # Number of conditional branches incorrect
system.cpu.branchPred.condPredicted           1356250                       # Number of conditional branches predicted
system.cpu.branchPred.indirectHits             850437                       # Number of indirect target hits.
system.cpu.branchPred.indirectLookups         1453215                       # Number of indirect predictor lookups.
system.cpu.branchPred.indirectMisses           602778                       # Number of indirect misses.
system.cpu.branchPred.lookups                 1684636                       # Number of BP lookups
system.cpu.branchPred.usedRAS                  159872                       # Number of times the RAS was used to get a target.
system.cpu.branchPredindirectMispredicted        16770                       # Number of mispredicted indirect branches.
system.cpu.cc_regfile_reads                   7075865                       # number of cc regfile reads
system.cpu.cc_regfile_writes                  5124306                       # number of cc regfile writes
system.cpu.commit.amos                              0                       # Number of atomic instructions committed
system.cpu.commit.branchMispredicts             35680                       # The number of times a branch was mispredicted
system.cpu.commit.branches                    1502438                       # Number of branches committed
system.cpu.commit.bw_lim_events               2542067                       # number cycles where commit BW limit reached
system.cpu.commit.commitNonSpecStalls            1016                       # The number of times commit has been forced to stall to communicate backwards
system.cpu.commit.commitSquashedInsts         1116838                       # The number of squashed insts skipped by commit
system.cpu.commit.committedInsts              7900208                       # Number of instructions committed
system.cpu.commit.committedOps               14710756                       # Number of ops (including micro ops) committed
system.cpu.commit.committed_per_cycle::samples      7300227                       # Number of insts commited each cycle
system.cpu.commit.committed_per_cycle::mean     2.015109                       # Number of insts commited each cycle
system.cpu.commit.committed_per_cycle::stdev     1.726178                       # Number of insts commited each cycle
system.cpu.commit.committed_per_cycle::underflows            0      0.00%      0.00% # Number of insts commited each cycle
system.cpu.commit.committed_per_cycle::0      2454033     33.62%     33.62% # Number of insts commited each cycle
system.cpu.commit.committed_per_cycle::1       917719     12.57%     46.19% # Number of insts commited each cycle
system.cpu.commit.committed_per_cycle::2       534455      7.32%     53.51% # Number of insts commited each cycle
system.cpu.commit.committed_per_cycle::3       851953     11.67%     65.18% # Number of insts commited each cycle
system.cpu.commit.committed_per_cycle::4      2542067     34.82%    100.00% # Number of insts commited each cycle
system.cpu.commit.committed_per_cycle::overflows            0      0.00%    100.00% # Number of insts commited each cycle
system.cpu.commit.committed_per_cycle::min_value            0                       # Number of insts commited each cycle
system.cpu.commit.committed_per_cycle::max_value            4                       # Number of insts commited each cycle
system.cpu.commit.committed_per_cycle::total      7300227                       # Number of insts commited each cycle
system.cpu.commit.fp_insts                     177177                       # Number of committed floating point instructions.
system.cpu.commit.function_calls               156485                       # Number of function calls committed.
system.cpu.commit.int_insts                  14574137                       # Number of committed integer instructions.
system.cpu.commit.loads                       1996846                       # Number of loads committed
system.cpu.commit.membars                           1                       # Number of memory barriers committed
system.cpu.commit.op_class_0::No_OpClass        20954      0.14%      0.14% # Class of committed instruction
system.cpu.commit.op_class_0::IntAlu         11446436     77.81%     77.95% # Class of committed instruction
system.cpu.commit.op_class_0::IntMult           35288      0.24%     78.19% # Class of committed instruction
system.cpu.commit.op_class_0::IntDiv            38415      0.26%     78.45% # Class of committed instruction
system.cpu.commit.op_class_0::FloatAdd          13051      0.09%     78.54% # Class of committed instruction
system.cpu.commit.op_class_0::FloatCmp              0      0.00%     78.54% # Class of committed instruction
system.cpu.commit.op_class_0::FloatCvt           1520      0.01%     78.55% # Class of committed instruction
system.cpu.commit.op_class_0::FloatMult             0      0.00%     78.55% # Class of committed instruction
system.cpu.commit.op_class_0::FloatMultAcc            0      0.00%     78.55% # Class of committed instruction
system.cpu.commit.op_class_0::FloatDiv              0      0.00%     78.55% # Class of committed instruction
system.cpu.commit.op_class_0::FloatMisc             0      0.00%     78.55% # Class of committed instruction
system.cpu.commit.op_class_0::FloatSqrt             0      0.00%     78.55% # Class of committed instruction
system.cpu.commit.op_class_0::SimdAdd            6414      0.04%     78.60% # Class of committed instruction
system.cpu.commit.op_class_0::SimdAddAcc            0      0.00%     78.60% # Class of committed instruction
system.cpu.commit.op_class_0::SimdAlu           11571      0.08%     78.67% # Class of committed instruction
system.cpu.commit.op_class_0::SimdCmp               0      0.00%     78.67% # Class of committed instruction
system.cpu.commit.op_class_0::SimdCvt           12578      0.09%     78.76% # Class of committed instruction
system.cpu.commit.op_class_0::SimdMisc          86777      0.59%     79.35% # Class of committed instruction
system.cpu.commit.op_class_0::SimdMult              0      0.00%     79.35% # Class of committed instruction
system.cpu.commit.op_class_0::SimdMultAcc            0      0.00%     79.35% # Class of committed instruction
system.cpu.commit.op_class_0::SimdShift          1256      0.01%     79.36% # Class of committed instruction
system.cpu.commit.op_class_0::SimdShiftAcc            0      0.00%     79.36% # Class of committed instruction
system.cpu.commit.op_class_0::SimdDiv               0      0.00%     79.36% # Class of committed instruction
system.cpu.commit.op_class_0::SimdSqrt              0      0.00%     79.36% # Class of committed instruction
system.cpu.commit.op_class_0::SimdFloatAdd            0      0.00%     79.36% # Class of committed instruction
system.cpu.commit.op_class_0::SimdFloatAlu            0      0.00%     79.36% # Class of committed instruction
system.cpu.commit.op_class_0::SimdFloatCmp            0      0.00%     79.36% # Class of committed instruction
system.cpu.commit.op_class_0::SimdFloatCvt            0      0.00%     79.36% # Class of committed instruction
system.cpu.commit.op_class_0::SimdFloatDiv            0      0.00%     79.36% # Class of committed instruction
system.cpu.commit.op_class_0::SimdFloatMisc            0      0.00%     79.36% # Class of committed instruction
system.cpu.commit.op_class_0::SimdFloatMult            0      0.00%     79.36% # Class of committed instruction
system.cpu.commit.op_class_0::SimdFloatMultAcc            0      0.00%     79.36% # Class of committed instruction
system.cpu.commit.op_class_0::SimdFloatSqrt            0      0.00%     79.36% # Class of committed instruction
system.cpu.commit.op_class_0::SimdReduceAdd            0      0.00%     79.36% # Class of committed instruction
system.cpu.commit.op_class_0::SimdReduceAlu            0      0.00%     79.36% # Class of committed instruction
system.cpu.commit.op_class_0::SimdReduceCmp            0      0.00%     79.36% # Class of committed instruction
system.cpu.commit.op_class_0::SimdFloatReduceAdd            0      0.00%     79.36% # Class of committed instruction
system.cpu.commit.op_class_0::SimdFloatReduceCmp            0      0.00%     79.36% # Class of committed instruction
system.cpu.commit.op_class_0::SimdAes               0      0.00%     79.36% # Class of committed instruction
system.cpu.commit.op_class_0::SimdAesMix            0      0.00%     79.36% # Class of committed instruction
system.cpu.commit.op_class_0::SimdSha1Hash            0      0.00%     79.36% # Class of committed instruction
system.cpu.commit.op_class_0::SimdSha1Hash2            0      0.00%     79.36% # Class of committed instruction
system.cpu.commit.op_class_0::SimdSha256Hash            0      0.00%     79.36% # Class of committed instruction
system.cpu.commit.op_class_0::SimdSha256Hash2            0      0.00%     79.36% # Class of committed instruction
system.cpu.commit.op_class_0::SimdShaSigma2            0      0.00%     79.36% # Class of committed instruction
system.cpu.commit.op_class_0::SimdShaSigma3            0      0.00%     79.36% # Class of committed instruction
system.cpu.commit.op_class_0::SimdPredAlu            0      0.00%     79.36% # Class of committed instruction
system.cpu.commit.op_class_0::MemRead         1976510     13.44%     92.79% # Class of committed instruction
system.cpu.commit.op_class_0::MemWrite        1026821      6.98%     99.77% # Class of committed instruction
system.cpu.commit.op_class_0::FloatMemRead        20336      0.14%     99.91% # Class of committed instruction
system.cpu.commit.op_class_0::FloatMemWrite        12829      0.09%    100.00% # Class of committed instruction
system.cpu.commit.op_class_0::IprAccess             0      0.00%    100.00% # Class of committed instruction
system.cpu.commit.op_class_0::InstPrefetch            0      0.00%    100.00% # Class of committed instruction
system.cpu.commit.op_class_0::total          14710756                       # Class of committed instruction
system.cpu.commit.refs                        3036496                       # Number of memory references committed
system.cpu.commit.swp_count                         0                       # Number of s/w prefetches committed
system.cpu.commit.vec_insts                         0                       # Number of committed Vector instructions.
system.cpu.committedInsts                     7900208                       # Number of Instructions Simulated
system.cpu.committedOps                      14710756                       # Number of Ops (including micro ops) Simulated
system.cpu.cpi                               0.991498                       # CPI: Cycles Per Instruction
system.cpu.cpi_total                         0.991498                       # CPI: Total CPI of All Threads
system.cpu.dcache.prefetcher.num_hwpf_issued         8209                       # number of hwpf issued
system.cpu.dcache.prefetcher.pfBufferHit        33347                       # number of redundant prefetches already in prefetch queue
system.cpu.dcache.prefetcher.pfIdentified        49167                       # number of prefetch candidates identified
system.cpu.dcache.prefetcher.pfInCache              0                       # number of redundant prefetches already in cache/mshr dropped
system.cpu.dcache.prefetcher.pfRemovedFull            0                       # number of prefetches dropped due to prefetch queue size
system.cpu.dcache.prefetcher.pfSpanPage          4505                       # number of prefetches that crossed the page
system.cpu.decode.BlockedCycles               1195744                       # Number of cycles decode is blocked
system.cpu.decode.DecodedInsts               16121002                       # Number of instructions handled by decode
system.cpu.decode.IdleCycles                  1904625                       # Number of cycles decode is idle
system.cpu.decode.RunCycles                   4339935                       # Number of cycles decode is running
system.cpu.decode.SquashCycles                  35777                       # Number of cycles decode is squashing
system.cpu.decode.UnblockCycles                130393                       # Number of cycles decode is unblocking
system.cpu.dtb.rdAccesses                     2091376                       # TLB accesses on read requests
system.cpu.dtb.rdMisses                          2243                       # TLB misses on read requests
system.cpu.dtb.wrAccesses                     1074594                       # TLB accesses on write requests
system.cpu.dtb.wrMisses                           173                       # TLB misses on write requests
system.cpu.fetch.Branches                     1684636                       # Number of branches that fetch encountered
system.cpu.fetch.CacheLines                   1151174                       # Number of cache lines fetched
system.cpu.fetch.Cycles                       5623853                       # Number of cycles fetch has run and was not squashing or blocked
system.cpu.fetch.IcacheSquashes                  5853                       # Number of outstanding Icache misses that were squashed
system.cpu.fetch.IcacheWaitRetryStallCycles           16                       # Number of stall cycles due to full MSHR
system.cpu.fetch.Insts                        8851920                       # Number of instructions fetch has processed
system.cpu.fetch.MiscStallCycles                  122                       # Number of cycles fetch has spent waiting on interrupts, or bad addresses, or out of MSHRs
system.cpu.fetch.PendingQuiesceStallCycles           10                       # Number of stall cycles due to pending quiesce instructions
system.cpu.fetch.PendingTrapStallCycles           628                       # Number of stall cycles due to pending traps
system.cpu.fetch.SquashCycles                   71554                       # Number of cycles fetch has spent squashing
system.cpu.fetch.branchRate                  0.215068                       # Number of branch fetches per cycle
system.cpu.fetch.icacheStallCycles            1946068                       # Number of cycles fetch is stalled on an Icache miss
system.cpu.fetch.predictedBranches            1010309                       # Number of branches that fetch has predicted taken
system.cpu.fetch.rate                        1.130075                       # Number of inst fetches per cycle
system.cpu.fetch.rateDist::samples            7606474                       # Number of instructions fetched each cycle (Total)
system.cpu.fetch.rateDist::mean              2.161268                       # Number of instructions fetched each cycle (Total)
system.cpu.fetch.rateDist::stdev             1.873239                       # Number of instructions fetched each cycle (Total)
system.cpu.fetch.rateDist::underflows               0      0.00%      0.00% # Number of instructions fetched each cycle (Total)
system.cpu.fetch.rateDist::0                  2980217     39.18%     39.18% # Number of instructions fetched each cycle (Total)
system.cpu.fetch.rateDist::1                   356768      4.69%     43.87% # Number of instructions fetched each cycle (Total)
system.cpu.fetch.rateDist::2                   259403      3.41%     47.28% # Number of instructions fetched each cycle (Total)
system.cpu.fetch.rateDist::3                   476289      6.26%     53.54% # Number of instructions fetched each cycle (Total)
system.cpu.fetch.rateDist::4                  3533797     46.46%    100.00% # Number of instructions fetched each cycle (Total)
system.cpu.fetch.rateDist::overflows                0      0.00%    100.00% # Number of instructions fetched each cycle (Total)
system.cpu.fetch.rateDist::min_value                0                       # Number of instructions fetched each cycle (Total)
system.cpu.fetch.rateDist::max_value                4                       # Number of instructions fetched each cycle (Total)
system.cpu.fetch.rateDist::total              7606474                       # Number of instructions fetched each cycle (Total)
system.cpu.fp_regfile_reads                    283425                       # number of floating regfile reads
system.cpu.fp_regfile_writes                   158129                       # number of floating regfile writes
system.cpu.fuPool.fu_ticks_busy::IntALU(0)    801136400                       # Total ticks fu was busy
system.cpu.fuPool.fu_ticks_busy::IntALU(1)    801136400                       # Total ticks fu was busy
system.cpu.fuPool.fu_ticks_busy::IntALU(2)    801136400                       # Total ticks fu was busy
system.cpu.fuPool.fu_ticks_busy::IntALU(3)    801136400                       # Total ticks fu was busy
system.cpu.fuPool.fu_ticks_busy::IntALU(4)    801136000                       # Total ticks fu was busy
system.cpu.fuPool.fu_ticks_busy::IntALU(5)    801136000                       # Total ticks fu was busy
system.cpu.fuPool.fu_ticks_busy::IntMultDiv(0)     15576400                       # Total ticks fu was busy
system.cpu.fuPool.fu_ticks_busy::IntMultDiv(1)     15576400                       # Total ticks fu was busy
system.cpu.fuPool.fu_ticks_busy::FP_ALU(0)      1614000                       # Total ticks fu was busy
system.cpu.fuPool.fu_ticks_busy::FP_ALU(1)      1614000                       # Total ticks fu was busy
system.cpu.fuPool.fu_ticks_busy::FP_ALU(2)      1613600                       # Total ticks fu was busy
system.cpu.fuPool.fu_ticks_busy::FP_ALU(3)      1613600                       # Total ticks fu was busy
system.cpu.fuPool.fu_ticks_busy::FP_MultDiv(0)            0                       # Total ticks fu was busy
system.cpu.fuPool.fu_ticks_busy::FP_MultDiv(1)            0                       # Total ticks fu was busy
system.cpu.fuPool.fu_ticks_busy::SIMD_Unit(0)     12501200                       # Total ticks fu was busy
system.cpu.fuPool.fu_ticks_busy::SIMD_Unit(1)     12516000                       # Total ticks fu was busy
system.cpu.fuPool.fu_ticks_busy::SIMD_Unit(2)     12696000                       # Total ticks fu was busy
system.cpu.fuPool.fu_ticks_busy::SIMD_Unit(3)     12675600                       # Total ticks fu was busy
system.cpu.fuPool.fu_ticks_busy::PredALU(0)            0                       # Total ticks fu was busy
system.cpu.fuPool.fu_ticks_busy::RdWrPort(0)    318630400                       # Total ticks fu was busy
system.cpu.fuPool.fu_ticks_busy::RdWrPort(1)    318585600                       # Total ticks fu was busy
system.cpu.fuPool.fu_ticks_busy::RdWrPort(2)    318586000                       # Total ticks fu was busy
system.cpu.fuPool.fu_ticks_busy::RdWrPort(3)    318562400                       # Total ticks fu was busy
system.cpu.fuPool.fu_ticks_busy::IprPort(0)            0                       # Total ticks fu was busy
system.cpu.fuPool.fu_ticks_busy::total     6169178800                       # Total ticks fu was busy
system.cpu.icache.prefetcher.num_hwpf_issued            0                       # number of hwpf issued
system.cpu.icache.prefetcher.pfBufferHit            0                       # number of redundant prefetches already in prefetch queue
system.cpu.icache.prefetcher.pfIdentified            0                       # number of prefetch candidates identified
system.cpu.icache.prefetcher.pfInCache              0                       # number of redundant prefetches already in cache/mshr dropped
system.cpu.icache.prefetcher.pfRemovedFull            0                       # number of prefetches dropped due to prefetch queue size
system.cpu.icache.prefetcher.pfSpanPage             0                       # number of prefetches that crossed the page
system.cpu.idleCycles                          226567                       # Total number of cycles that the CPU has spent unscheduled due to idling
system.cpu.iew.branchMispredicts                40907                       # Number of branch mispredicts detected at execute
system.cpu.iew.exec_branches                  1545018                       # Number of branches executed
system.cpu.iew.exec_nop                             0                       # number of nop insts executed
system.cpu.iew.exec_rate                     1.965656                       # Inst execution rate
system.cpu.iew.exec_refs                      3167577                       # number of memory reference insts executed
system.cpu.iew.exec_stores                    1074578                       # Number of stores executed
system.cpu.iew.exec_swp                             0                       # number of swp insts executed
system.cpu.iew.iewBlockCycles                  756102                       # Number of cycles IEW is blocking
system.cpu.iew.iewDispLoadInsts               2131124                       # Number of dispatched load instructions
system.cpu.iew.iewDispNonSpecInsts               1950                       # Number of dispatched non-speculative instructions
system.cpu.iew.iewDispSquashedInsts               698                       # Number of squashed instructions skipped by dispatch
system.cpu.iew.iewDispStoreInsts              1094601                       # Number of dispatched store instructions
system.cpu.iew.iewDispatchedInsts            15827492                       # Number of instructions dispatched to IQ
system.cpu.iew.iewExecLoadInsts               2092999                       # Number of load instructions executed
system.cpu.iew.iewExecSquashedInsts             53750                       # Number of squashed instructions skipped in execute
system.cpu.iew.iewExecutedInsts              15397063                       # Number of executed instructions
system.cpu.iew.iewIQFullEvents                   3421                       # Number of times the IQ has become full, causing a stall
system.cpu.iew.iewIdleCycles                        0                       # Number of cycles IEW is idle
system.cpu.iew.iewLSQFullEvents                 10255                       # Number of times the LSQ has become full, causing a stall
system.cpu.iew.iewSquashCycles                  35777                       # Number of cycles IEW is squashing
system.cpu.iew.iewUnblockCycles                 16602                       # Number of cycles IEW is unblocking
system.cpu.iew.lsq.thread0.blockedLoads             0                       # Number of blocked loads due to partial load-store forwarding
system.cpu.iew.lsq.thread0.cacheBlocked           589                       # Number of times an access to memory failed due to the cache being blocked
system.cpu.iew.lsq.thread0.forwLoads           123224                       # Number of loads that had data forwarded from stores
system.cpu.iew.lsq.thread0.ignoredResponses          240                       # Number of memory responses ignored because the instruction is squashed
system.cpu.iew.lsq.thread0.invAddrLoads             0                       # Number of loads ignored due to an invalid address
system.cpu.iew.lsq.thread0.invAddrSwpfs             0                       # Number of software prefetches ignored due to an invalid address
system.cpu.iew.lsq.thread0.memOrderViolation          113                       # Number of memory ordering violations
system.cpu.iew.lsq.thread0.rescheduledLoads            0                       # Number of loads that were rescheduled
system.cpu.iew.lsq.thread0.squashedLoads       134276                       # Number of loads squashed
system.cpu.iew.lsq.thread0.squashedStores        54950                       # Number of stores squashed
system.cpu.iew.memOrderViolationEvents            113                       # Number of memory order violations
system.cpu.iew.predictedNotTakenIncorrect        28454                       # Number of branches that were predicted not taken incorrectly
system.cpu.iew.predictedTakenIncorrect          12453                       # Number of branches that were predicted taken incorrectly
system.cpu.iew.wb_consumers                  17261586                       # num instructions consuming a value
system.cpu.iew.wb_count                      15372475                       # cumulative count of insts written-back
system.cpu.iew.wb_fanout                     0.619684                       # average fanout of values written-back
system.cpu.iew.wb_producers                  10696737                       # num instructions producing a value
system.cpu.iew.wb_rate                       1.962517                       # insts written-back per cycle
system.cpu.iew.wb_sent                       15380302                       # cumulative count of insts sent to commit
system.cpu.int_regfile_reads                 24295613                       # number of integer regfile reads
system.cpu.int_regfile_writes                12706064                       # number of integer regfile writes
system.cpu.ipc                               1.008575                       # IPC: Instructions Per Cycle
system.cpu.ipc_total                         1.008575                       # IPC: Total IPC of All Threads
system.cpu.iq.FU_type_0::No_OpClass             27866      0.18%      0.18% # Type of FU issued
system.cpu.iq.FU_type_0::IntAlu              12017045     77.78%     77.96% # Type of FU issued
system.cpu.iq.FU_type_0::IntMult                35420      0.23%     78.19% # Type of FU issued
system.cpu.iq.FU_type_0::IntDiv                 42462      0.27%     78.46% # Type of FU issued
system.cpu.iq.FU_type_0::FloatAdd               14566      0.09%     78.55% # Type of FU issued
system.cpu.iq.FU_type_0::FloatCmp                   0      0.00%     78.55% # Type of FU issued
system.cpu.iq.FU_type_0::FloatCvt                1572      0.01%     78.56% # Type of FU issued
system.cpu.iq.FU_type_0::FloatMult                  0      0.00%     78.56% # Type of FU issued
system.cpu.iq.FU_type_0::FloatMultAcc               0      0.00%     78.56% # Type of FU issued
system.cpu.iq.FU_type_0::FloatDiv                   0      0.00%     78.56% # Type of FU issued
system.cpu.iq.FU_type_0::FloatMisc                  0      0.00%     78.56% # Type of FU issued
system.cpu.iq.FU_type_0::FloatSqrt                  0      0.00%     78.56% # Type of FU issued
system.cpu.iq.FU_type_0::SimdAdd                 7002      0.05%     78.61% # Type of FU issued
system.cpu.iq.FU_type_0::SimdAddAcc                 0      0.00%     78.61% # Type of FU issued
system.cpu.iq.FU_type_0::SimdAlu                15121      0.10%     78.71% # Type of FU issued
system.cpu.iq.FU_type_0::SimdCmp                    0      0.00%     78.71% # Type of FU issued
system.cpu.iq.FU_type_0::SimdCvt                14256      0.09%     78.80% # Type of FU issued
system.cpu.iq.FU_type_0::SimdMisc               87304      0.57%     79.37% # Type of FU issued
system.cpu.iq.FU_type_0::SimdMult                   0      0.00%     79.37% # Type of FU issued
system.cpu.iq.FU_type_0::SimdMultAcc                0      0.00%     79.37% # Type of FU issued
system.cpu.iq.FU_type_0::SimdShift               2289      0.01%     79.38% # Type of FU issued
system.cpu.iq.FU_type_0::SimdShiftAcc               0      0.00%     79.38% # Type of FU issued
system.cpu.iq.FU_type_0::SimdDiv                    0      0.00%     79.38% # Type of FU issued
system.cpu.iq.FU_type_0::SimdSqrt                   0      0.00%     79.38% # Type of FU issued
system.cpu.iq.FU_type_0::SimdFloatAdd               0      0.00%     79.38% # Type of FU issued
system.cpu.iq.FU_type_0::SimdFloatAlu               0      0.00%     79.38% # Type of FU issued
system.cpu.iq.FU_type_0::SimdFloatCmp               0      0.00%     79.38% # Type of FU issued
system.cpu.iq.FU_type_0::SimdFloatCvt               0      0.00%     79.38% # Type of FU issued
system.cpu.iq.FU_type_0::SimdFloatDiv               0      0.00%     79.38% # Type of FU issued
system.cpu.iq.FU_type_0::SimdFloatMisc              0      0.00%     79.38% # Type of FU issued
system.cpu.iq.FU_type_0::SimdFloatMult              0      0.00%     79.38% # Type of FU issued
system.cpu.iq.FU_type_0::SimdFloatMultAcc            0      0.00%     79.38% # Type of FU issued
system.cpu.iq.FU_type_0::SimdFloatSqrt              0      0.00%     79.38% # Type of FU issued
system.cpu.iq.FU_type_0::SimdReduceAdd              0      0.00%     79.38% # Type of FU issued
system.cpu.iq.FU_type_0::SimdReduceAlu              0      0.00%     79.38% # Type of FU issued
system.cpu.iq.FU_type_0::SimdReduceCmp              0      0.00%     79.38% # Type of FU issued
system.cpu.iq.FU_type_0::SimdFloatReduceAdd            0      0.00%     79.38% # Type of FU issued
system.cpu.iq.FU_type_0::SimdFloatReduceCmp            0      0.00%     79.38% # Type of FU issued
system.cpu.iq.FU_type_0::SimdAes                    0      0.00%     79.38% # Type of FU issued
system.cpu.iq.FU_type_0::SimdAesMix                 0      0.00%     79.38% # Type of FU issued
system.cpu.iq.FU_type_0::SimdSha1Hash               0      0.00%     79.38% # Type of FU issued
system.cpu.iq.FU_type_0::SimdSha1Hash2              0      0.00%     79.38% # Type of FU issued
system.cpu.iq.FU_type_0::SimdSha256Hash             0      0.00%     79.38% # Type of FU issued
system.cpu.iq.FU_type_0::SimdSha256Hash2            0      0.00%     79.38% # Type of FU issued
system.cpu.iq.FU_type_0::SimdShaSigma2              0      0.00%     79.38% # Type of FU issued
system.cpu.iq.FU_type_0::SimdShaSigma3              0      0.00%     79.38% # Type of FU issued
system.cpu.iq.FU_type_0::SimdPredAlu                0      0.00%     79.38% # Type of FU issued
system.cpu.iq.FU_type_0::MemRead              2078952     13.46%     92.84% # Type of FU issued
system.cpu.iq.FU_type_0::MemWrite             1066354      6.90%     99.74% # Type of FU issued
system.cpu.iq.FU_type_0::FloatMemRead           26440      0.17%     99.91% # Type of FU issued
system.cpu.iq.FU_type_0::FloatMemWrite          14167      0.09%    100.00% # Type of FU issued
system.cpu.iq.FU_type_0::IprAccess                  0      0.00%    100.00% # Type of FU issued
system.cpu.iq.FU_type_0::InstPrefetch               0      0.00%    100.00% # Type of FU issued
system.cpu.iq.FU_type_0::total               15450816                       # Type of FU issued
system.cpu.iq.fp_alu_accesses                  193725                       # Number of floating point alu accesses
system.cpu.iq.fp_inst_queue_reads              388846                       # Number of floating instruction queue reads
system.cpu.iq.fp_inst_queue_wakeup_accesses       190108                       # Number of floating instruction queue wakeup accesses
system.cpu.iq.fp_inst_queue_writes             235691                       # Number of floating instruction queue writes
system.cpu.iq.fu_busy_cnt                           0                       # FU busy when requested
system.cpu.iq.fu_busy_rate                          0                       # FU busy rate (busy events/executed inst)
system.cpu.iq.fu_full::No_OpClass                   0                       # attempts to use FU when none available
system.cpu.iq.fu_full::IntAlu                       0                       # attempts to use FU when none available
system.cpu.iq.fu_full::IntMult                      0                       # attempts to use FU when none available
system.cpu.iq.fu_full::IntDiv                       0                       # attempts to use FU when none available
system.cpu.iq.fu_full::FloatAdd                     0                       # attempts to use FU when none available
system.cpu.iq.fu_full::FloatCmp                     0                       # attempts to use FU when none available
system.cpu.iq.fu_full::FloatCvt                     0                       # attempts to use FU when none available
system.cpu.iq.fu_full::FloatMult                    0                       # attempts to use FU when none available
system.cpu.iq.fu_full::FloatMultAcc                 0                       # attempts to use FU when none available
system.cpu.iq.fu_full::FloatDiv                     0                       # attempts to use FU when none available
system.cpu.iq.fu_full::FloatMisc                    0                       # attempts to use FU when none available
system.cpu.iq.fu_full::FloatSqrt                    0                       # attempts to use FU when none available
system.cpu.iq.fu_full::SimdAdd                      0                       # attempts to use FU when none available
system.cpu.iq.fu_full::SimdAddAcc                   0                       # attempts to use FU when none available
system.cpu.iq.fu_full::SimdAlu                      0                       # attempts to use FU when none available
system.cpu.iq.fu_full::SimdCmp                      0                       # attempts to use FU when none available
system.cpu.iq.fu_full::SimdCvt                      0                       # attempts to use FU when none available
system.cpu.iq.fu_full::SimdMisc                     0                       # attempts to use FU when none available
system.cpu.iq.fu_full::SimdMult                     0                       # attempts to use FU when none available
system.cpu.iq.fu_full::SimdMultAcc                  0                       # attempts to use FU when none available
system.cpu.iq.fu_full::SimdShift                    0                       # attempts to use FU when none available
system.cpu.iq.fu_full::SimdShiftAcc                 0                       # attempts to use FU when none available
system.cpu.iq.fu_full::SimdDiv                      0                       # attempts to use FU when none available
system.cpu.iq.fu_full::SimdSqrt                     0                       # attempts to use FU when none available
system.cpu.iq.fu_full::SimdFloatAdd                 0                       # attempts to use FU when none available
system.cpu.iq.fu_full::SimdFloatAlu                 0                       # attempts to use FU when none available
system.cpu.iq.fu_full::SimdFloatCmp                 0                       # attempts to use FU when none available
system.cpu.iq.fu_full::SimdFloatCvt                 0                       # attempts to use FU when none available
system.cpu.iq.fu_full::SimdFloatDiv                 0                       # attempts to use FU when none available
system.cpu.iq.fu_full::SimdFloatMisc                0                       # attempts to use FU when none available
system.cpu.iq.fu_full::SimdFloatMult                0                       # attempts to use FU when none available
system.cpu.iq.fu_full::SimdFloatMultAcc             0                       # attempts to use FU when none available
system.cpu.iq.fu_full::SimdFloatSqrt                0                       # attempts to use FU when none available
system.cpu.iq.fu_full::SimdReduceAdd                0                       # attempts to use FU when none available
system.cpu.iq.fu_full::SimdReduceAlu                0                       # attempts to use FU when none available
system.cpu.iq.fu_full::SimdReduceCmp                0                       # attempts to use FU when none available
system.cpu.iq.fu_full::SimdFloatReduceAdd            0                       # attempts to use FU when none available
system.cpu.iq.fu_full::SimdFloatReduceCmp            0                       # attempts to use FU when none available
system.cpu.iq.fu_full::SimdAes                      0                       # attempts to use FU when none available
system.cpu.iq.fu_full::SimdAesMix                   0                       # attempts to use FU when none available
system.cpu.iq.fu_full::SimdSha1Hash                 0                       # attempts to use FU when none available
system.cpu.iq.fu_full::SimdSha1Hash2                0                       # attempts to use FU when none available
system.cpu.iq.fu_full::SimdSha256Hash               0                       # attempts to use FU when none available
system.cpu.iq.fu_full::SimdSha256Hash2              0                       # attempts to use FU when none available
system.cpu.iq.fu_full::SimdShaSigma2                0                       # attempts to use FU when none available
system.cpu.iq.fu_full::SimdShaSigma3                0                       # attempts to use FU when none available
system.cpu.iq.fu_full::SimdPredAlu                  0                       # attempts to use FU when none available
system.cpu.iq.fu_full::MemRead                      0                       # attempts to use FU when none available
system.cpu.iq.fu_full::MemWrite                     0                       # attempts to use FU when none available
system.cpu.iq.fu_full::FloatMemRead                 0                       # attempts to use FU when none available
system.cpu.iq.fu_full::FloatMemWrite                0                       # attempts to use FU when none available
system.cpu.iq.fu_full::IprAccess                    0                       # attempts to use FU when none available
system.cpu.iq.fu_full::InstPrefetch                 0                       # attempts to use FU when none available
system.cpu.iq.int_alu_accesses               15229225                       # Number of integer alu accesses
system.cpu.iq.int_inst_queue_reads           38140104                       # Number of integer instruction queue reads
system.cpu.iq.int_inst_queue_wakeup_accesses     15182367                       # Number of integer instruction queue wakeup accesses
system.cpu.iq.int_inst_queue_writes          16708637                       # Number of integer instruction queue writes
system.cpu.iq.iqInstsAdded                   15823912                       # Number of instructions added to the IQ (excludes non-spec)
system.cpu.iq.iqInstsIssued                  15450816                       # Number of instructions issued
system.cpu.iq.iqNonSpecInstsAdded                3580                       # Number of non-speculative instructions added to the IQ
system.cpu.iq.iqSquashedInstsExamined         1116725                       # Number of squashed instructions iterated over during squash; mainly for profiling
system.cpu.iq.iqSquashedInstsIssued             20847                       # Number of squashed instructions issued
system.cpu.iq.iqSquashedNonSpecRemoved           2564                       # Number of squashed non-spec instructions that were removed
system.cpu.iq.iqSquashedOperandsExamined      1535251                       # Number of squashed operands that are examined and possibly removed from graph
system.cpu.iq.issued_per_cycle::samples       7606474                       # Number of insts issued each cycle
system.cpu.iq.issued_per_cycle::mean         2.031272                       # Number of insts issued each cycle
system.cpu.iq.issued_per_cycle::stdev        1.580979                       # Number of insts issued each cycle
system.cpu.iq.issued_per_cycle::underflows            0      0.00%      0.00% # Number of insts issued each cycle
system.cpu.iq.issued_per_cycle::0             2180366     28.66%     28.66% # Number of insts issued each cycle
system.cpu.iq.issued_per_cycle::1              809664     10.64%     39.31% # Number of insts issued each cycle
system.cpu.iq.issued_per_cycle::2             1248370     16.41%     55.72% # Number of insts issued each cycle
system.cpu.iq.issued_per_cycle::3             1327884     17.46%     73.18% # Number of insts issued each cycle
system.cpu.iq.issued_per_cycle::4             2040190     26.82%    100.00% # Number of insts issued each cycle
system.cpu.iq.issued_per_cycle::overflows            0      0.00%    100.00% # Number of insts issued each cycle
system.cpu.iq.issued_per_cycle::min_value            0                       # Number of insts issued each cycle
system.cpu.iq.issued_per_cycle::max_value            4                       # Number of insts issued each cycle
system.cpu.iq.issued_per_cycle::total         7606474                       # Number of insts issued each cycle
system.cpu.iq.rate                           1.972518                       # Inst issue rate
system.cpu.iq.vec_alu_accesses                      0                       # Number of vector alu accesses
system.cpu.iq.vec_inst_queue_reads                  0                       # Number of vector instruction queue reads
system.cpu.iq.vec_inst_queue_wakeup_accesses            0                       # Number of vector instruction queue wakeup accesses
system.cpu.iq.vec_inst_queue_writes                 0                       # Number of vector instruction queue writes
system.cpu.itb.rdAccesses                           0                       # TLB accesses on read requests
system.cpu.itb.rdMisses                             0                       # TLB misses on read requests
system.cpu.itb.wrAccesses                     1151286                       # TLB accesses on write requests
system.cpu.itb.wrMisses                           370                       # TLB misses on write requests
system.cpu.memDep0.conflictingLoads             29437                       # Number of conflicting loads.
system.cpu.memDep0.conflictingStores            25191                       # Number of conflicting stores.
system.cpu.memDep0.insertedLoads              2131124                       # Number of loads inserted to the mem dependence unit.
system.cpu.memDep0.insertedStores             1094601                       # Number of stores inserted to the mem dependence unit.
system.cpu.misc_regfile_reads                 6258534                       # number of misc regfile reads
system.cpu.misc_regfile_writes                    855                       # number of misc regfile writes
system.cpu.numCycles                          7833041                       # number of cpu cycles simulated
system.cpu.numWorkItemsCompleted                    0                       # number of work items this cpu completed
system.cpu.numWorkItemsStarted                      0                       # number of work items this cpu started
system.cpu.process.numSyscalls                    160                       # Number of system calls
system.cpu.rename.BlockCycles                  930879                       # Number of cycles rename is blocking
system.cpu.rename.CommittedMaps              17198485                       # Number of HB maps that are committed
system.cpu.rename.FullRegisterEvents               20                       # Number of times there has been no free registers
system.cpu.rename.IQFullEvents                  87786                       # Number of times rename has blocked due to IQ full
system.cpu.rename.IdleCycles                  1979178                       # Number of cycles rename is idle
system.cpu.rename.LQFullEvents                  20648                       # Number of times rename has blocked due to LQ full
system.cpu.rename.ROBFullEvents                  5132                       # Number of times rename has blocked due to ROB full
system.cpu.rename.RenameLookups              39907142                       # Number of register rename lookups that rename has made
system.cpu.rename.RenamedInsts               16024684                       # Number of instructions processed by rename
system.cpu.rename.RenamedOperands            18923934                       # Number of destination operands rename has renamed
system.cpu.rename.RunCycles                   4383610                       # Number of cycles rename is running
system.cpu.rename.SQFullEvents                  95688                       # Number of times rename has blocked due to SQ full
system.cpu.rename.SquashCycles                  35777                       # Number of cycles rename is squashing
system.cpu.rename.UnblockCycles                252691                       # Number of cycles rename is unblocking
system.cpu.rename.UndoneMaps                  1725426                       # Number of HB maps that are undone due to squashing
system.cpu.rename.fp_rename_lookups            319915                       # Number of floating rename lookups
system.cpu.rename.int_rename_lookups         25468035                       # Number of integer rename lookups
system.cpu.rename.serializeStallCycles          24339                       # count of cycles rename stalled for serializing inst
system.cpu.rename.serializingInsts               1172                       # count of serializing insts renamed
system.cpu.rename.skidInsts                    315512                       # count of insts added to the skid buffer
system.cpu.rename.tempSerializingInsts           1235                       # count of temporary serializing insts renamed
system.cpu.rob.rob_reads                     20585754                       # The number of ROB reads
system.cpu.rob.rob_writes                    31963417                       # The number of ROB writes
system.cpu.timesIdled                           23162                       # Number of times that the entire CPU went into an idle state and unscheduled itself
system.l2bus.snoop_filter.hit_multi_requests           13                       # Number of requests hitting in the snoop filter with multiple (>1) holders of the requested data.
system.l2bus.snoop_filter.hit_multi_snoops            0                       # Number of snoops hitting in the snoop filter with multiple (>1) holders of the requested data.
system.l2bus.snoop_filter.hit_single_requests        51399                       # Number of requests hitting in the snoop filter with a single holder of the requested data.
system.l2bus.snoop_filter.hit_single_snoops          480                       # Number of snoops hitting in the snoop filter with a single holder of the requested data.
system.l2bus.snoop_filter.tot_requests         104077                       # Total number of requests made to the snoop filter.
system.l2bus.snoop_filter.tot_snoops              480                       # Total number of snoops made to the snoop filter.
system.l2cache.prefetcher.num_hwpf_issued          720                       # number of hwpf issued
system.l2cache.prefetcher.pfBufferHit               0                       # number of redundant prefetches already in prefetch queue
system.l2cache.prefetcher.pfIdentified            720                       # number of prefetch candidates identified
system.l2cache.prefetcher.pfInCache                 0                       # number of redundant prefetches already in cache/mshr dropped
system.l2cache.prefetcher.pfRemovedFull             0                       # number of prefetches dropped due to prefetch queue size
system.l2cache.prefetcher.pfSpanPage               76                       # number of prefetches that crossed the page
system.membus.snoop_filter.hit_multi_requests            0                       # Number of requests hitting in the snoop filter with multiple (>1) holders of the requested data.
system.membus.snoop_filter.hit_multi_snoops            0                       # Number of snoops hitting in the snoop filter with multiple (>1) holders of the requested data.
system.membus.snoop_filter.hit_single_requests        10365                       # Number of requests hitting in the snoop filter with a single holder of the requested data.
system.membus.snoop_filter.hit_single_snoops            0                       # Number of snoops hitting in the snoop filter with a single holder of the requested data.
system.membus.snoop_filter.tot_requests         24851                       # Total number of requests made to the snoop filter.
system.membus.snoop_filter.tot_snoops               0                       # Total number of snoops made to the snoop filter.
system.membus.pwrStateResidencyTicks::UNDEFINED   3133216000                       # Cumulative time (in ticks) in various power states
system.membus.trans_dist::ReadResp              12653                       # Transaction distribution
system.membus.trans_dist::WritebackDirty         1406                       # Transaction distribution
system.membus.trans_dist::CleanEvict             8959                       # Transaction distribution
system.membus.trans_dist::ReadExReq              1833                       # Transaction distribution
system.membus.trans_dist::ReadExResp             1833                       # Transaction distribution
system.membus.trans_dist::ReadSharedReq         12653                       # Transaction distribution
system.membus.pkt_count_system.l2cache.mem_side::system.mem_ctrl.port        39337                       # Packet count per connected master and slave (bytes)
system.membus.pkt_count_system.l2cache.mem_side::total        39337                       # Packet count per connected master and slave (bytes)
system.membus.pkt_count::total                  39337                       # Packet count per connected master and slave (bytes)
system.membus.pkt_size_system.l2cache.mem_side::system.mem_ctrl.port      1017088                       # Cumulative packet size per connected master and slave (bytes)
system.membus.pkt_size_system.l2cache.mem_side::total      1017088                       # Cumulative packet size per connected master and slave (bytes)
system.membus.pkt_size::total                 1017088                       # Cumulative packet size per connected master and slave (bytes)
system.membus.snoops                                0                       # Total snoops (count)
system.membus.snoopTraffic                          0                       # Total snoop traffic (bytes)
system.membus.snoop_fanout::samples             14486                       # Request fanout histogram
system.membus.snoop_fanout::mean                    0                       # Request fanout histogram
system.membus.snoop_fanout::stdev                   0                       # Request fanout histogram
system.membus.snoop_fanout::underflows              0      0.00%      0.00% # Request fanout histogram
system.membus.snoop_fanout::0                   14486    100.00%    100.00% # Request fanout histogram
system.membus.snoop_fanout::1                       0      0.00%    100.00% # Request fanout histogram
system.membus.snoop_fanout::overflows               0      0.00%    100.00% # Request fanout histogram
system.membus.snoop_fanout::min_value               0                       # Request fanout histogram
system.membus.snoop_fanout::max_value               0                       # Request fanout histogram
system.membus.snoop_fanout::total               14486                       # Request fanout histogram
system.membus.reqLayer2.occupancy            12219751                       # Layer occupancy (ticks)
system.membus.reqLayer2.utilization               0.4                       # Layer utilization (%)
system.membus.respLayer0.occupancy           31436549                       # Layer occupancy (ticks)
system.membus.respLayer0.utilization              1.0                       # Layer utilization (%)
system.l2bus.pwrStateResidencyTicks::UNDEFINED   3133216000                       # Cumulative time (in ticks) in various power states
system.l2bus.trans_dist::ReadResp               50081                       # Transaction distribution
system.l2bus.trans_dist::WritebackDirty          4869                       # Transaction distribution
system.l2bus.trans_dist::CleanEvict             56994                       # Transaction distribution
system.l2bus.trans_dist::HardPFReq               1043                       # Transaction distribution
system.l2bus.trans_dist::UpgradeReq                 1                       # Transaction distribution
system.l2bus.trans_dist::UpgradeResp                1                       # Transaction distribution
system.l2bus.trans_dist::ReadExReq               2597                       # Transaction distribution
system.l2bus.trans_dist::ReadExResp              2597                       # Transaction distribution
system.l2bus.trans_dist::ReadSharedReq          50081                       # Transaction distribution
system.l2bus.pkt_count_system.cpu.icache.mem_side::system.l2cache.cpu_side       102781                       # Packet count per connected master and slave (bytes)
system.l2bus.pkt_count_system.cpu.dcache.mem_side::system.l2cache.cpu_side        53971                       # Packet count per connected master and slave (bytes)
system.l2bus.pkt_count::total                  156752                       # Packet count per connected master and slave (bytes)
system.l2bus.pkt_size_system.cpu.icache.mem_side::system.l2cache.cpu_side      2197952                       # Cumulative packet size per connected master and slave (bytes)
system.l2bus.pkt_size_system.cpu.dcache.mem_side::system.l2cache.cpu_side      1394816                       # Cumulative packet size per connected master and slave (bytes)
system.l2bus.pkt_size::total                  3592768                       # Cumulative packet size per connected master and slave (bytes)
system.l2bus.snoops                             11512                       # Total snoops (count)
system.l2bus.snoopTraffic                       90240                       # Total snoop traffic (bytes)
system.l2bus.snoop_fanout::samples              64187                       # Request fanout histogram
system.l2bus.snoop_fanout::mean              0.007681                       # Request fanout histogram
system.l2bus.snoop_fanout::stdev             0.087303                       # Request fanout histogram
system.l2bus.snoop_fanout::underflows               0      0.00%      0.00% # Request fanout histogram
system.l2bus.snoop_fanout::0                    63694     99.23%     99.23% # Request fanout histogram
system.l2bus.snoop_fanout::1                      493      0.77%    100.00% # Request fanout histogram
system.l2bus.snoop_fanout::2                        0      0.00%    100.00% # Request fanout histogram
system.l2bus.snoop_fanout::overflows                0      0.00%    100.00% # Request fanout histogram
system.l2bus.snoop_fanout::min_value                0                       # Request fanout histogram
system.l2bus.snoop_fanout::max_value                1                       # Request fanout histogram
system.l2bus.snoop_fanout::total                64187                       # Request fanout histogram
system.l2bus.respLayer1.occupancy            21998398                       # Layer occupancy (ticks)
system.l2bus.respLayer1.utilization               0.7                       # Layer utilization (%)
system.l2bus.reqLayer0.occupancy             45857398                       # Layer occupancy (ticks)
system.l2bus.reqLayer0.utilization                1.5                       # Layer utilization (%)
system.l2bus.respLayer0.occupancy            41217198                       # Layer occupancy (ticks)
system.l2bus.respLayer0.utilization               1.3                       # Layer utilization (%)
system.clk_domain.clock                           400                       # Clock period in ticks
system.clk_domain.voltage_domain.voltage            1                       # Voltage in Volts
system.cpu.pwrStateResidencyTicks::ON      3133216000                       # Cumulative time (in ticks) in various power states
system.cpu.icache.pwrStateResidencyTicks::UNDEFINED   3133216000                       # Cumulative time (in ticks) in various power states
system.cpu.icache.demand_hits::.cpu.inst      1116058                       # number of demand (read+write) hits
system.cpu.icache.demand_hits::total          1116058                       # number of demand (read+write) hits
system.cpu.icache.overall_hits::.cpu.inst      1116058                       # number of overall hits
system.cpu.icache.overall_hits::total         1116058                       # number of overall hits
system.cpu.icache.demand_misses::.cpu.inst        35115                       # number of demand (read+write) misses
system.cpu.icache.demand_misses::total          35115                       # number of demand (read+write) misses
system.cpu.icache.overall_misses::.cpu.inst        35115                       # number of overall misses
system.cpu.icache.overall_misses::total         35115                       # number of overall misses
system.cpu.icache.demand_miss_latency::.cpu.inst    513147600                       # number of demand (read+write) miss cycles
system.cpu.icache.demand_miss_latency::total    513147600                       # number of demand (read+write) miss cycles
system.cpu.icache.overall_miss_latency::.cpu.inst    513147600                       # number of overall miss cycles
system.cpu.icache.overall_miss_latency::total    513147600                       # number of overall miss cycles
system.cpu.icache.demand_accesses::.cpu.inst      1151173                       # number of demand (read+write) accesses
system.cpu.icache.demand_accesses::total      1151173                       # number of demand (read+write) accesses
system.cpu.icache.overall_accesses::.cpu.inst      1151173                       # number of overall (read+write) accesses
system.cpu.icache.overall_accesses::total      1151173                       # number of overall (read+write) accesses
system.cpu.icache.demand_miss_rate::.cpu.inst     0.030504                       # miss rate for demand accesses
system.cpu.icache.demand_miss_rate::total     0.030504                       # miss rate for demand accesses
system.cpu.icache.overall_miss_rate::.cpu.inst     0.030504                       # miss rate for overall accesses
system.cpu.icache.overall_miss_rate::total     0.030504                       # miss rate for overall accesses
system.cpu.icache.demand_avg_miss_latency::.cpu.inst 14613.344724                       # average overall miss latency
system.cpu.icache.demand_avg_miss_latency::total 14613.344724                       # average overall miss latency
system.cpu.icache.overall_avg_miss_latency::.cpu.inst 14613.344724                       # average overall miss latency
system.cpu.icache.overall_avg_miss_latency::total 14613.344724                       # average overall miss latency
system.cpu.icache.blocked_cycles::no_mshrs          238                       # number of cycles access was blocked
system.cpu.icache.blocked_cycles::no_targets            0                       # number of cycles access was blocked
system.cpu.icache.blocked::no_mshrs                 7                       # number of cycles access was blocked
system.cpu.icache.blocked::no_targets               0                       # number of cycles access was blocked
system.cpu.icache.avg_blocked_cycles::no_mshrs           34                       # average number of cycles each access was blocked
system.cpu.icache.avg_blocked_cycles::no_targets          nan                       # average number of cycles each access was blocked
system.cpu.icache.demand_mshr_hits::.cpu.inst          768                       # number of demand (read+write) MSHR hits
system.cpu.icache.demand_mshr_hits::total          768                       # number of demand (read+write) MSHR hits
system.cpu.icache.overall_mshr_hits::.cpu.inst          768                       # number of overall MSHR hits
system.cpu.icache.overall_mshr_hits::total          768                       # number of overall MSHR hits
system.cpu.icache.demand_mshr_misses::.cpu.inst        34347                       # number of demand (read+write) MSHR misses
system.cpu.icache.demand_mshr_misses::total        34347                       # number of demand (read+write) MSHR misses
system.cpu.icache.overall_mshr_misses::.cpu.inst        34347                       # number of overall MSHR misses
system.cpu.icache.overall_mshr_misses::total        34347                       # number of overall MSHR misses
system.cpu.icache.demand_mshr_miss_latency::.cpu.inst    450742000                       # number of demand (read+write) MSHR miss cycles
system.cpu.icache.demand_mshr_miss_latency::total    450742000                       # number of demand (read+write) MSHR miss cycles
system.cpu.icache.overall_mshr_miss_latency::.cpu.inst    450742000                       # number of overall MSHR miss cycles
system.cpu.icache.overall_mshr_miss_latency::total    450742000                       # number of overall MSHR miss cycles
system.cpu.icache.demand_mshr_miss_rate::.cpu.inst     0.029837                       # mshr miss rate for demand accesses
system.cpu.icache.demand_mshr_miss_rate::total     0.029837                       # mshr miss rate for demand accesses
system.cpu.icache.overall_mshr_miss_rate::.cpu.inst     0.029837                       # mshr miss rate for overall accesses
system.cpu.icache.overall_mshr_miss_rate::total     0.029837                       # mshr miss rate for overall accesses
system.cpu.icache.demand_avg_mshr_miss_latency::.cpu.inst 13123.183975                       # average overall mshr miss latency
system.cpu.icache.demand_avg_mshr_miss_latency::total 13123.183975                       # average overall mshr miss latency
system.cpu.icache.overall_avg_mshr_miss_latency::.cpu.inst 13123.183975                       # average overall mshr miss latency
system.cpu.icache.overall_avg_mshr_miss_latency::total 13123.183975                       # average overall mshr miss latency
system.cpu.icache.replacements                  34091                       # number of replacements
system.cpu.icache.ReadReq_hits::.cpu.inst      1116058                       # number of ReadReq hits
system.cpu.icache.ReadReq_hits::total         1116058                       # number of ReadReq hits
system.cpu.icache.ReadReq_misses::.cpu.inst        35115                       # number of ReadReq misses
system.cpu.icache.ReadReq_misses::total         35115                       # number of ReadReq misses
system.cpu.icache.ReadReq_miss_latency::.cpu.inst    513147600                       # number of ReadReq miss cycles
system.cpu.icache.ReadReq_miss_latency::total    513147600                       # number of ReadReq miss cycles
system.cpu.icache.ReadReq_accesses::.cpu.inst      1151173                       # number of ReadReq accesses(hits+misses)
system.cpu.icache.ReadReq_accesses::total      1151173                       # number of ReadReq accesses(hits+misses)
system.cpu.icache.ReadReq_miss_rate::.cpu.inst     0.030504                       # miss rate for ReadReq accesses
system.cpu.icache.ReadReq_miss_rate::total     0.030504                       # miss rate for ReadReq accesses
system.cpu.icache.ReadReq_avg_miss_latency::.cpu.inst 14613.344724                       # average ReadReq miss latency
system.cpu.icache.ReadReq_avg_miss_latency::total 14613.344724                       # average ReadReq miss latency
system.cpu.icache.ReadReq_mshr_hits::.cpu.inst          768                       # number of ReadReq MSHR hits
system.cpu.icache.ReadReq_mshr_hits::total          768                       # number of ReadReq MSHR hits
system.cpu.icache.ReadReq_mshr_misses::.cpu.inst        34347                       # number of ReadReq MSHR misses
system.cpu.icache.ReadReq_mshr_misses::total        34347                       # number of ReadReq MSHR misses
system.cpu.icache.ReadReq_mshr_miss_latency::.cpu.inst    450742000                       # number of ReadReq MSHR miss cycles
system.cpu.icache.ReadReq_mshr_miss_latency::total    450742000                       # number of ReadReq MSHR miss cycles
system.cpu.icache.ReadReq_mshr_miss_rate::.cpu.inst     0.029837                       # mshr miss rate for ReadReq accesses
system.cpu.icache.ReadReq_mshr_miss_rate::total     0.029837                       # mshr miss rate for ReadReq accesses
system.cpu.icache.ReadReq_avg_mshr_miss_latency::.cpu.inst 13123.183975                       # average ReadReq mshr miss latency
system.cpu.icache.ReadReq_avg_mshr_miss_latency::total 13123.183975                       # average ReadReq mshr miss latency
system.cpu.icache.prefetcher.pwrStateResidencyTicks::UNDEFINED   3133216000                       # Cumulative time (in ticks) in various power states
system.cpu.icache.tags.pwrStateResidencyTicks::UNDEFINED   3133216000                       # Cumulative time (in ticks) in various power states
system.cpu.icache.tags.tagsinuse           255.112199                       # Cycle average of tags in use
system.cpu.icache.tags.total_refs              749549                       # Total number of references to valid blocks.
system.cpu.icache.tags.sampled_refs             34091                       # Sample count of references to valid blocks.
system.cpu.icache.tags.avg_refs             21.986712                       # Average number of references to valid blocks.
system.cpu.icache.tags.warmup_cycle             66400                       # Cycle when the warmup percentage was hit.
system.cpu.icache.tags.occ_blocks::.cpu.inst   255.112199                       # Average occupied blocks per requestor
system.cpu.icache.tags.occ_percent::.cpu.inst     0.996532                       # Average percentage of cache occupancy
system.cpu.icache.tags.occ_percent::total     0.996532                       # Average percentage of cache occupancy
system.cpu.icache.tags.occ_task_id_blocks::1024          256                       # Occupied blocks per task id
system.cpu.icache.tags.age_task_id_blocks_1024::0           80                       # Occupied blocks per task id
system.cpu.icache.tags.age_task_id_blocks_1024::1            4                       # Occupied blocks per task id
system.cpu.icache.tags.age_task_id_blocks_1024::3          172                       # Occupied blocks per task id
system.cpu.icache.tags.occ_task_id_percent::1024            1                       # Percentage of cache occupancy per task id
system.cpu.icache.tags.tag_accesses           2336693                       # Number of tag accesses
system.cpu.icache.tags.data_accesses          2336693                       # Number of data accesses
system.cpu.dtb.walker.pwrStateResidencyTicks::UNDEFINED   3133216000                       # Cumulative time (in ticks) in various power states
system.cpu.interrupts.clk_domain.clock           6400                       # Clock period in ticks
system.cpu.itb.walker.pwrStateResidencyTicks::UNDEFINED   3133216000                       # Cumulative time (in ticks) in various power states
system.cpu.dcache.pwrStateResidencyTicks::UNDEFINED   3133216000                       # Cumulative time (in ticks) in various power states
system.cpu.dcache.demand_hits::.cpu.data      2969607                       # number of demand (read+write) hits
system.cpu.dcache.demand_hits::total          2969607                       # number of demand (read+write) hits
system.cpu.dcache.overall_hits::.cpu.data      2969607                       # number of overall hits
system.cpu.dcache.overall_hits::total         2969607                       # number of overall hits
system.cpu.dcache.demand_misses::.cpu.data        36985                       # number of demand (read+write) misses
system.cpu.dcache.demand_misses::total          36985                       # number of demand (read+write) misses
system.cpu.dcache.overall_misses::.cpu.data        36985                       # number of overall misses
system.cpu.dcache.overall_misses::total         36985                       # number of overall misses
system.cpu.dcache.demand_miss_latency::.cpu.data   1788327999                       # number of demand (read+write) miss cycles
system.cpu.dcache.demand_miss_latency::total   1788327999                       # number of demand (read+write) miss cycles
system.cpu.dcache.overall_miss_latency::.cpu.data   1788327999                       # number of overall miss cycles
system.cpu.dcache.overall_miss_latency::total   1788327999                       # number of overall miss cycles
system.cpu.dcache.demand_accesses::.cpu.data      3006592                       # number of demand (read+write) accesses
system.cpu.dcache.demand_accesses::total      3006592                       # number of demand (read+write) accesses
system.cpu.dcache.overall_accesses::.cpu.data      3006592                       # number of overall (read+write) accesses
system.cpu.dcache.overall_accesses::total      3006592                       # number of overall (read+write) accesses
system.cpu.dcache.demand_miss_rate::.cpu.data     0.012301                       # miss rate for demand accesses
system.cpu.dcache.demand_miss_rate::total     0.012301                       # miss rate for demand accesses
system.cpu.dcache.overall_miss_rate::.cpu.data     0.012301                       # miss rate for overall accesses
system.cpu.dcache.overall_miss_rate::total     0.012301                       # miss rate for overall accesses
system.cpu.dcache.demand_avg_miss_latency::.cpu.data 48352.791645                       # average overall miss latency
system.cpu.dcache.demand_avg_miss_latency::total 48352.791645                       # average overall miss latency
system.cpu.dcache.overall_avg_miss_latency::.cpu.data 48352.791645                       # average overall miss latency
system.cpu.dcache.overall_avg_miss_latency::total 48352.791645                       # average overall miss latency
system.cpu.dcache.blocked_cycles::no_mshrs        28895                       # number of cycles access was blocked
system.cpu.dcache.blocked_cycles::no_targets          186                       # number of cycles access was blocked
system.cpu.dcache.blocked::no_mshrs               748                       # number of cycles access was blocked
system.cpu.dcache.blocked::no_targets               2                       # number of cycles access was blocked
system.cpu.dcache.avg_blocked_cycles::no_mshrs    38.629679                       # average number of cycles each access was blocked
system.cpu.dcache.avg_blocked_cycles::no_targets           93                       # average number of cycles each access was blocked
system.cpu.dcache.unused_prefetches              1891                       # number of HardPF blocks evicted w/o reference
system.cpu.dcache.writebacks::.writebacks         3463                       # number of writebacks
system.cpu.dcache.writebacks::total              3463                       # number of writebacks
system.cpu.dcache.demand_mshr_hits::.cpu.data        23122                       # number of demand (read+write) MSHR hits
system.cpu.dcache.demand_mshr_hits::total        23122                       # number of demand (read+write) MSHR hits
system.cpu.dcache.overall_mshr_hits::.cpu.data        23122                       # number of overall MSHR hits
system.cpu.dcache.overall_mshr_hits::total        23122                       # number of overall MSHR hits
system.cpu.dcache.demand_mshr_misses::.cpu.data        13863                       # number of demand (read+write) MSHR misses
system.cpu.dcache.demand_mshr_misses::total        13863                       # number of demand (read+write) MSHR misses
system.cpu.dcache.overall_mshr_misses::.cpu.data        13863                       # number of overall MSHR misses
system.cpu.dcache.overall_mshr_misses::.cpu.dcache.prefetcher         4469                       # number of overall MSHR misses
system.cpu.dcache.overall_mshr_misses::total        18332                       # number of overall MSHR misses
system.cpu.dcache.demand_mshr_miss_latency::.cpu.data    637035999                       # number of demand (read+write) MSHR miss cycles
system.cpu.dcache.demand_mshr_miss_latency::total    637035999                       # number of demand (read+write) MSHR miss cycles
system.cpu.dcache.overall_mshr_miss_latency::.cpu.data    637035999                       # number of overall MSHR miss cycles
system.cpu.dcache.overall_mshr_miss_latency::.cpu.dcache.prefetcher    251079259                       # number of overall MSHR miss cycles
system.cpu.dcache.overall_mshr_miss_latency::total    888115258                       # number of overall MSHR miss cycles
system.cpu.dcache.demand_mshr_miss_rate::.cpu.data     0.004611                       # mshr miss rate for demand accesses
system.cpu.dcache.demand_mshr_miss_rate::total     0.004611                       # mshr miss rate for demand accesses
system.cpu.dcache.overall_mshr_miss_rate::.cpu.data     0.004611                       # mshr miss rate for overall accesses
system.cpu.dcache.overall_mshr_miss_rate::.cpu.dcache.prefetcher          inf                       # mshr miss rate for overall accesses
system.cpu.dcache.overall_mshr_miss_rate::total     0.006097                       # mshr miss rate for overall accesses
system.cpu.dcache.demand_avg_mshr_miss_latency::.cpu.data 45952.246916                       # average overall mshr miss latency
system.cpu.dcache.demand_avg_mshr_miss_latency::total 45952.246916                       # average overall mshr miss latency
system.cpu.dcache.overall_avg_mshr_miss_latency::.cpu.data 45952.246916                       # average overall mshr miss latency
system.cpu.dcache.overall_avg_mshr_miss_latency::.cpu.dcache.prefetcher 56182.425375                       # average overall mshr miss latency
system.cpu.dcache.overall_avg_mshr_miss_latency::total 48446.173794                       # average overall mshr miss latency
system.cpu.dcache.replacements                  17307                       # number of replacements
system.cpu.dcache.ReadReq_hits::.cpu.data      1932587                       # number of ReadReq hits
system.cpu.dcache.ReadReq_hits::total         1932587                       # number of ReadReq hits
system.cpu.dcache.ReadReq_misses::.cpu.data        34345                       # number of ReadReq misses
system.cpu.dcache.ReadReq_misses::total         34345                       # number of ReadReq misses
system.cpu.dcache.ReadReq_miss_latency::.cpu.data   1648727200                       # number of ReadReq miss cycles
system.cpu.dcache.ReadReq_miss_latency::total   1648727200                       # number of ReadReq miss cycles
system.cpu.dcache.ReadReq_accesses::.cpu.data      1966932                       # number of ReadReq accesses(hits+misses)
system.cpu.dcache.ReadReq_accesses::total      1966932                       # number of ReadReq accesses(hits+misses)
system.cpu.dcache.ReadReq_miss_rate::.cpu.data     0.017461                       # miss rate for ReadReq accesses
system.cpu.dcache.ReadReq_miss_rate::total     0.017461                       # miss rate for ReadReq accesses
system.cpu.dcache.ReadReq_avg_miss_latency::.cpu.data 48004.868249                       # average ReadReq miss latency
system.cpu.dcache.ReadReq_avg_miss_latency::total 48004.868249                       # average ReadReq miss latency
system.cpu.dcache.ReadReq_mshr_hits::.cpu.data        23080                       # number of ReadReq MSHR hits
system.cpu.dcache.ReadReq_mshr_hits::total        23080                       # number of ReadReq MSHR hits
system.cpu.dcache.ReadReq_mshr_misses::.cpu.data        11265                       # number of ReadReq MSHR misses
system.cpu.dcache.ReadReq_mshr_misses::total        11265                       # number of ReadReq MSHR misses
system.cpu.dcache.ReadReq_mshr_miss_latency::.cpu.data    501103600                       # number of ReadReq MSHR miss cycles
system.cpu.dcache.ReadReq_mshr_miss_latency::total    501103600                       # number of ReadReq MSHR miss cycles
system.cpu.dcache.ReadReq_mshr_miss_rate::.cpu.data     0.005727                       # mshr miss rate for ReadReq accesses
system.cpu.dcache.ReadReq_mshr_miss_rate::total     0.005727                       # mshr miss rate for ReadReq accesses
system.cpu.dcache.ReadReq_avg_mshr_miss_latency::.cpu.data 44483.231247                       # average ReadReq mshr miss latency
system.cpu.dcache.ReadReq_avg_mshr_miss_latency::total 44483.231247                       # average ReadReq mshr miss latency
system.cpu.dcache.WriteReq_hits::.cpu.data      1037020                       # number of WriteReq hits
system.cpu.dcache.WriteReq_hits::total        1037020                       # number of WriteReq hits
system.cpu.dcache.WriteReq_misses::.cpu.data         2640                       # number of WriteReq misses
system.cpu.dcache.WriteReq_misses::total         2640                       # number of WriteReq misses
system.cpu.dcache.WriteReq_miss_latency::.cpu.data    139600799                       # number of WriteReq miss cycles
system.cpu.dcache.WriteReq_miss_latency::total    139600799                       # number of WriteReq miss cycles
system.cpu.dcache.WriteReq_accesses::.cpu.data      1039660                       # number of WriteReq accesses(hits+misses)
system.cpu.dcache.WriteReq_accesses::total      1039660                       # number of WriteReq accesses(hits+misses)
system.cpu.dcache.WriteReq_miss_rate::.cpu.data     0.002539                       # miss rate for WriteReq accesses
system.cpu.dcache.WriteReq_miss_rate::total     0.002539                       # miss rate for WriteReq accesses
system.cpu.dcache.WriteReq_avg_miss_latency::.cpu.data 52879.090530                       # average WriteReq miss latency
system.cpu.dcache.WriteReq_avg_miss_latency::total 52879.090530                       # average WriteReq miss latency
system.cpu.dcache.WriteReq_mshr_hits::.cpu.data           42                       # number of WriteReq MSHR hits
system.cpu.dcache.WriteReq_mshr_hits::total           42                       # number of WriteReq MSHR hits
system.cpu.dcache.WriteReq_mshr_misses::.cpu.data         2598                       # number of WriteReq MSHR misses
[...]
system.l2cache.demand_mshr_misses::.cpu.data          139                       # number of demand (read+write) MSHR misses
system.l2cache.demand_mshr_misses::.cpu.dcache.prefetcher           22                       # number of demand (read+write) MSHR misses
system.l2cache.demand_mshr_misses::total          433                       # number of demand (read+write) MSHR misses
system.l2cache.overall_mshr_misses::.cpu.inst          272                       # number of overall MSHR misses
system.l2cache.overall_mshr_misses::.cpu.data          139                       # number of overall MSHR misses
system.l2cache.overall_mshr_misses::.cpu.dcache.prefetcher           22                       # number of overall MSHR misses
system.l2cache.overall_mshr_misses::total          433                       # number of overall MSHR misses
system.l2cache.demand_mshr_miss_latency::.cpu.inst     16496000                       # number of demand (read+write) MSHR miss cycles
system.l2cache.demand_mshr_miss_latency::.cpu.data      8258400                       # number of demand (read+write) MSHR miss cycles
system.l2cache.demand_mshr_miss_latency::.cpu.dcache.prefetcher      1464370                       # number of demand (read+write) MSHR miss cycles
system.l2cache.demand_mshr_miss_latency::total     26218770                       # number of demand (read+write) MSHR miss cycles
system.l2cache.overall_mshr_miss_latency::.cpu.inst     16496000                       # number of overall MSHR miss cycles
system.l2cache.overall_mshr_miss_latency::.cpu.data      8258400                       # number of overall MSHR miss cycles
system.l2cache.overall_mshr_miss_latency::.cpu.dcache.prefetcher      1464370                       # number of overall MSHR miss cycles
system.l2cache.overall_mshr_miss_latency::total     26218770                       # number of overall MSHR miss cycles
system.l2cache.demand_mshr_miss_rate::.cpu.inst     0.393064                       # mshr miss rate for demand accesses
system.l2cache.demand_mshr_miss_rate::.cpu.data     0.412463                       # mshr miss rate for demand accesses
system.l2cache.demand_mshr_miss_rate::.cpu.dcache.prefetcher     0.628571                       # mshr miss rate for demand accesses
system.l2cache.demand_mshr_miss_rate::total     0.406955                       # mshr miss rate for demand accesses
system.l2cache.overall_mshr_miss_rate::.cpu.inst     0.393064                       # mshr miss rate for overall accesses
system.l2cache.overall_mshr_miss_rate::.cpu.data     0.412463                       # mshr miss rate for overall accesses
system.l2cache.overall_mshr_miss_rate::.cpu.dcache.prefetcher     0.628571                       # mshr miss rate for overall accesses
system.l2cache.overall_mshr_miss_rate::total     0.406955                       # mshr miss rate for overall accesses
system.l2cache.demand_avg_mshr_miss_latency::.cpu.inst 60647.058824                       # average overall mshr miss latency
system.l2cache.demand_avg_mshr_miss_latency::.cpu.data 59412.949640                       # average overall mshr miss latency
system.l2cache.demand_avg_mshr_miss_latency::.cpu.dcache.prefetcher 66562.272727                       # average overall mshr miss latency
system.l2cache.demand_avg_mshr_miss_latency::total 60551.431871                       # average overall mshr miss latency
system.l2cache.overall_avg_mshr_miss_latency::.cpu.inst 60647.058824                       # average overall mshr miss latency
system.l2cache.overall_avg_mshr_miss_latency::.cpu.data 59412.949640                       # average overall mshr miss latency
system.l2cache.overall_avg_mshr_miss_latency::.cpu.dcache.prefetcher 66562.272727                       # average overall mshr miss latency
system.l2cache.overall_avg_mshr_miss_latency::total 60551.431871                       # average overall mshr miss latency
system.l2cache.replacements                       438                       # number of replacements
system.l2cache.WritebackDirty_hits::.writebacks          224                       # number of WritebackDirty hits
system.l2cache.WritebackDirty_hits::total          224                       # number of WritebackDirty hits
system.l2cache.WritebackDirty_accesses::.writebacks          224                       # number of WritebackDirty accesses(hits+misses)
system.l2cache.WritebackDirty_accesses::total          224                       # number of WritebackDirty accesses(hits+misses)
system.l2cache.CleanEvict_mshr_misses::.writebacks           10                       # number of CleanEvict MSHR misses
system.l2cache.CleanEvict_mshr_misses::total           10                       # number of CleanEvict MSHR misses
system.l2cache.CleanEvict_mshr_miss_rate::.writebacks          inf                       # mshr miss rate for CleanEvict accesses
system.l2cache.CleanEvict_mshr_miss_rate::total          inf                       # mshr miss rate for CleanEvict accesses
system.l2cache.ReadExReq_hits::.cpu.data           15                       # number of ReadExReq hits
system.l2cache.ReadExReq_hits::total               15                       # number of ReadExReq hits
system.l2cache.ReadExReq_misses::.cpu.data           36                       # number of ReadExReq misses
system.l2cache.ReadExReq_misses::total             36                       # number of ReadExReq misses
system.l2cache.ReadExReq_miss_latency::.cpu.data      2556400                       # number of ReadExReq miss cycles
system.l2cache.ReadExReq_miss_latency::total      2556400                       # number of ReadExReq miss cycles
system.l2cache.ReadExReq_accesses::.cpu.data           51                       # number of ReadExReq accesses(hits+misses)
system.l2cache.ReadExReq_accesses::total           51                       # number of ReadExReq accesses(hits+misses)
system.l2cache.ReadExReq_miss_rate::.cpu.data     0.705882                       # miss rate for ReadExReq accesses
system.l2cache.ReadExReq_miss_rate::total     0.705882                       # miss rate for ReadExReq accesses
system.l2cache.ReadExReq_avg_miss_latency::.cpu.data 71011.111111                       # average ReadExReq miss latency
system.l2cache.ReadExReq_avg_miss_latency::total 71011.111111                       # average ReadExReq miss latency
system.l2cache.ReadExReq_mshr_misses::.cpu.data           36                       # number of ReadExReq MSHR misses
system.l2cache.ReadExReq_mshr_misses::total           36                       # number of ReadExReq MSHR misses
system.l2cache.ReadExReq_mshr_miss_latency::.cpu.data      2268400                       # number of ReadExReq MSHR miss cycles
system.l2cache.ReadExReq_mshr_miss_latency::total      2268400                       # number of ReadExReq MSHR miss cycles
system.l2cache.ReadExReq_mshr_miss_rate::.cpu.data     0.705882                       # mshr miss rate for ReadExReq accesses
system.l2cache.ReadExReq_mshr_miss_rate::total     0.705882                       # mshr miss rate for ReadExReq accesses
system.l2cache.ReadExReq_avg_mshr_miss_latency::.cpu.data 63011.111111                       # average ReadExReq mshr miss latency
system.l2cache.ReadExReq_avg_mshr_miss_latency::total 63011.111111                       # average ReadExReq mshr miss latency
system.l2cache.ReadSharedReq_hits::.cpu.inst          420                       # number of ReadSharedReq hits
system.l2cache.ReadSharedReq_hits::.cpu.data          183                       # number of ReadSharedReq hits
system.l2cache.ReadSharedReq_hits::.cpu.dcache.prefetcher           13                       # number of ReadSharedReq hits
system.l2cache.ReadSharedReq_hits::total          616                       # number of ReadSharedReq hits
system.l2cache.ReadSharedReq_misses::.cpu.inst          272                       # number of ReadSharedReq misses
system.l2cache.ReadSharedReq_misses::.cpu.data          103                       # number of ReadSharedReq misses
system.l2cache.ReadSharedReq_misses::.cpu.dcache.prefetcher           22                       # number of ReadSharedReq misses
system.l2cache.ReadSharedReq_misses::total          397                       # number of ReadSharedReq misses
system.l2cache.ReadSharedReq_miss_latency::.cpu.inst     18664000                       # number of ReadSharedReq miss cycles
system.l2cache.ReadSharedReq_miss_latency::.cpu.data      6814000                       # number of ReadSharedReq miss cycles
system.l2cache.ReadSharedReq_miss_latency::.cpu.dcache.prefetcher      1640370                       # number of ReadSharedReq miss cycles
system.l2cache.ReadSharedReq_miss_latency::total     27118370                       # number of ReadSharedReq miss cycles
system.l2cache.ReadSharedReq_accesses::.cpu.inst          692                       # number of ReadSharedReq accesses(hits+misses)
system.l2cache.ReadSharedReq_accesses::.cpu.data          286                       # number of ReadSharedReq accesses(hits+misses)
system.l2cache.ReadSharedReq_accesses::.cpu.dcache.prefetcher           35                       # number of ReadSharedReq accesses(hits+misses)
system.l2cache.ReadSharedReq_accesses::total         1013                       # number of ReadSharedReq accesses(hits+misses)
system.l2cache.ReadSharedReq_miss_rate::.cpu.inst     0.393064                       # miss rate for ReadSharedReq accesses
system.l2cache.ReadSharedReq_miss_rate::.cpu.data     0.360140                       # miss rate for ReadSharedReq accesses
system.l2cache.ReadSharedReq_miss_rate::.cpu.dcache.prefetcher     0.628571                       # miss rate for ReadSharedReq accesses
system.l2cache.ReadSharedReq_miss_rate::total     0.391905                       # miss rate for ReadSharedReq accesses
system.l2cache.ReadSharedReq_avg_miss_latency::.cpu.inst 68617.647059                       # average ReadSharedReq miss latency
system.l2cache.ReadSharedReq_avg_miss_latency::.cpu.data 66155.339806                       # average ReadSharedReq miss latency
system.l2cache.ReadSharedReq_avg_miss_latency::.cpu.dcache.prefetcher 74562.272727                       # average ReadSharedReq miss latency
system.l2cache.ReadSharedReq_avg_miss_latency::total 68308.236776                       # average ReadSharedReq miss latency
system.l2cache.ReadSharedReq_mshr_misses::.cpu.inst          272                       # number of ReadSharedReq MSHR misses
system.l2cache.ReadSharedReq_mshr_misses::.cpu.data          103                       # number of ReadSharedReq MSHR misses
system.l2cache.ReadSharedReq_mshr_misses::.cpu.dcache.prefetcher           22                       # number of ReadSharedReq MSHR misses
system.l2cache.ReadSharedReq_mshr_misses::total          397                       # number of ReadSharedReq MSHR misses
system.l2cache.ReadSharedReq_mshr_miss_latency::.cpu.inst     16496000                       # number of ReadSharedReq MSHR miss cycles
system.l2cache.ReadSharedReq_mshr_miss_latency::.cpu.data      5990000                       # number of ReadSharedReq MSHR miss cycles
system.l2cache.ReadSharedReq_mshr_miss_latency::.cpu.dcache.prefetcher      1464370                       # number of ReadSharedReq MSHR miss cycles
system.l2cache.ReadSharedReq_mshr_miss_latency::total     23950370                       # number of ReadSharedReq MSHR miss cycles
system.l2cache.ReadSharedReq_mshr_miss_rate::.cpu.inst     0.393064                       # mshr miss rate for ReadSharedReq accesses
system.l2cache.ReadSharedReq_mshr_miss_rate::.cpu.data     0.360140                       # mshr miss rate for ReadSharedReq accesses
system.l2cache.ReadSharedReq_mshr_miss_rate::.cpu.dcache.prefetcher     0.628571                       # mshr miss rate for ReadSharedReq accesses
system.l2cache.ReadSharedReq_mshr_miss_rate::total     0.391905                       # mshr miss rate for ReadSharedReq accesses
system.l2cache.ReadSharedReq_avg_mshr_miss_latency::.cpu.inst 60647.058824                       # average ReadSharedReq mshr miss latency
system.l2cache.ReadSharedReq_avg_mshr_miss_latency::.cpu.data 58155.339806                       # average ReadSharedReq mshr miss latency
system.l2cache.ReadSharedReq_avg_mshr_miss_latency::.cpu.dcache.prefetcher 66562.272727                       # average ReadSharedReq mshr miss latency
system.l2cache.ReadSharedReq_avg_mshr_miss_latency::total 60328.387909                       # average ReadSharedReq mshr miss latency
system.l2cache.prefetcher.pwrStateResidencyTicks::UNDEFINED     74602400                       # Cumulative time (in ticks) in various power states
system.l2cache.tags.pwrStateResidencyTicks::UNDEFINED     74602400                       # Cumulative time (in ticks) in various power states
system.l2cache.tags.tagsinuse                    4096                       # Cycle average of tags in use
system.l2cache.tags.total_refs                  77912                       # Total number of references to valid blocks.
system.l2cache.tags.sampled_refs                 4534                       # Sample count of references to valid blocks.
system.l2cache.tags.avg_refs                17.183944                       # Average number of references to valid blocks.
system.l2cache.tags.warmup_cycle                    0                       # Cycle when the warmup percentage was hit.
system.l2cache.tags.occ_blocks::.writebacks    42.155223                       # Average occupied blocks per requestor
system.l2cache.tags.occ_blocks::.cpu.inst  1061.098995                       # Average occupied blocks per requestor
system.l2cache.tags.occ_blocks::.cpu.data  2139.759225                       # Average occupied blocks per requestor
system.l2cache.tags.occ_blocks::.cpu.dcache.prefetcher   695.057413                       # Average occupied blocks per requestor
system.l2cache.tags.occ_blocks::.l2cache.prefetcher   157.929144                       # Average occupied blocks per requestor
system.l2cache.tags.occ_percent::.writebacks     0.010292                       # Average percentage of cache occupancy
system.l2cache.tags.occ_percent::.cpu.inst     0.259057                       # Average percentage of cache occupancy
system.l2cache.tags.occ_percent::.cpu.data     0.522402                       # Average percentage of cache occupancy
system.l2cache.tags.occ_percent::.cpu.dcache.prefetcher     0.169692                       # Average percentage of cache occupancy
system.l2cache.tags.occ_percent::.l2cache.prefetcher     0.038557                       # Average percentage of cache occupancy
system.l2cache.tags.occ_percent::total              1                       # Average percentage of cache occupancy
system.l2cache.tags.occ_task_id_blocks::1022          790                       # Occupied blocks per task id
system.l2cache.tags.occ_task_id_blocks::1024         3306                       # Occupied blocks per task id
system.l2cache.tags.age_task_id_blocks_1022::0           14                       # Occupied blocks per task id
system.l2cache.tags.age_task_id_blocks_1022::1           10                       # Occupied blocks per task id
system.l2cache.tags.age_task_id_blocks_1022::2            4                       # Occupied blocks per task id
system.l2cache.tags.age_task_id_blocks_1022::3          762                       # Occupied blocks per task id
system.l2cache.tags.age_task_id_blocks_1024::0          183                       # Occupied blocks per task id
system.l2cache.tags.age_task_id_blocks_1024::1          231                       # Occupied blocks per task id
system.l2cache.tags.age_task_id_blocks_1024::2           78                       # Occupied blocks per task id
system.l2cache.tags.age_task_id_blocks_1024::3         2814                       # Occupied blocks per task id
system.l2cache.tags.occ_task_id_percent::1022     0.192871                       # Percentage of cache occupancy per task id
system.l2cache.tags.occ_task_id_percent::1024     0.807129                       # Percentage of cache occupancy per task id
system.l2cache.tags.tag_accesses                17422                       # Number of tag accesses
system.l2cache.tags.data_accesses               17422                       # Number of data accesses
system.mem_ctrl.pwrStateResidencyTicks::UNDEFINED     74602400                       # Cumulative time (in ticks) in various power states
system.mem_ctrl.bytes_read::.cpu.inst           17344                       # Number of bytes read from this memory
system.mem_ctrl.bytes_read::.cpu.data            8896                       # Number of bytes read from this memory
system.mem_ctrl.bytes_read::.cpu.dcache.prefetcher         1408                       # Number of bytes read from this memory
system.mem_ctrl.bytes_read::total               27648                       # Number of bytes read from this memory
system.mem_ctrl.bytes_inst_read::.cpu.inst        17344                       # Number of instructions bytes read from this memory
system.mem_ctrl.bytes_inst_read::total          17344                       # Number of instructions bytes read from this memory
system.mem_ctrl.bytes_written::.writebacks         1984                       # Number of bytes written to this memory
system.mem_ctrl.bytes_written::total             1984                       # Number of bytes written to this memory
system.mem_ctrl.num_reads::.cpu.inst              271                       # Number of read requests responded to by this memory
system.mem_ctrl.num_reads::.cpu.data              139                       # Number of read requests responded to by this memory
system.mem_ctrl.num_reads::.cpu.dcache.prefetcher           22                       # Number of read requests responded to by this memory
system.mem_ctrl.num_reads::total                  432                       # Number of read requests responded to by this memory
system.mem_ctrl.num_writes::.writebacks            31                       # Number of write requests responded to by this memory
system.mem_ctrl.num_writes::total                  31                       # Number of write requests responded to by this memory
system.mem_ctrl.bw_read::.cpu.inst          232485818                       # Total read bandwidth from this memory (bytes/s)
system.mem_ctrl.bw_read::.cpu.data          119245493                       # Total read bandwidth from this memory (bytes/s)
system.mem_ctrl.bw_read::.cpu.dcache.prefetcher     18873387                       # Total read bandwidth from this memory (bytes/s)
system.mem_ctrl.bw_read::total              370604699                       # Total read bandwidth from this memory (bytes/s)
system.mem_ctrl.bw_inst_read::.cpu.inst     232485818                       # Instruction read bandwidth from this memory (bytes/s)
system.mem_ctrl.bw_inst_read::total         232485818                       # Instruction read bandwidth from this memory (bytes/s)
system.mem_ctrl.bw_write::.writebacks        26594319                       # Write bandwidth from this memory (bytes/s)
system.mem_ctrl.bw_write::total              26594319                       # Write bandwidth from this memory (bytes/s)
system.mem_ctrl.bw_total::.writebacks        26594319                       # Total bandwidth to/from this memory (bytes/s)
system.mem_ctrl.bw_total::.cpu.inst         232485818                       # Total bandwidth to/from this memory (bytes/s)
system.mem_ctrl.bw_total::.cpu.data         119245493                       # Total bandwidth to/from this memory (bytes/s)
system.mem_ctrl.bw_total::.cpu.dcache.prefetcher     18873387                       # Total bandwidth to/from this memory (bytes/s)
system.mem_ctrl.bw_total::total             397199018                       # Total bandwidth to/from this memory (bytes/s)

---------- End Simulation Statistics   ----------
