
---------- Begin Simulation Statistics ----------
final_tick                                 3136146800                       # Number of ticks from beginning of simulation (restored from checkpoints and never reset)
host_inst_rate                                 183205                       # Simulator instruction rate (inst/s)
host_mem_usage                                4408900                       # Number of bytes of host memory used
host_op_rate                                   341140                       # Simulator op (including micro ops) rate (op/s)
host_seconds                                    43.12                       # Real time elapsed on the host
host_tick_rate                               72726655                       # Simulator tick rate (ticks/s)
sim_freq                                 1000000000000                       # Frequency of simulated ticks
sim_insts                                     7900208                       # Number of instructions simulated
sim_ops                                      14710756                       # Number of ops (including micro ops) simulated
sim_seconds                                  0.003136                       # Number of seconds simulated
sim_ticks                                  3136146800                       # Number of ticks simulated
system.cpu.branchPred.BTBCorrect                    0                       # Number of correct BTB predictions (this stat may not work properly.
system.cpu.branchPred.BTBHitPct              0.000000                       # BTB Hit Percentage
system.cpu.branchPred.BTBHits                       0                       # Number of BTB hits
system.cpu.branchPred.BTBLookups              1437888                       # Number of BTB lookups
system.cpu.branchPred.RASInCorrect                  9                       # Number of incorrect RAS predictions.
system.cpu.branchPred.condIncorrect             35358                       # Number of conditional branches incorrect
system.cpu.branchPred.condPredicted           1350252                       # Number of conditional branches predicted
system.cpu.branchPred.indirectHits             849149                       # Number of indirect target hits.
system.cpu.branchPred.indirectLookups         1437888                       # Number of indirect predictor lookups.
system.cpu.branchPred.indirectMisses           588739                       # Number of indirect misses.
system.cpu.branchPred.lookups                 1678210                       # Number of BP lookups
system.cpu.branchPred.usedRAS                  159781                       # Number of times the RAS was used to get a target.
system.cpu.branchPredindirectMispredicted        16773                       # Number of mispredicted indirect branches.
system.cpu.cc_regfile_reads                   7069124                       # number of cc regfile reads
system.cpu.cc_regfile_writes                  5117567                       # number of cc regfile writes
system.cpu.commit.amos                              0                       # Number of atomic instructions committed
system.cpu.commit.branchMispredicts             35451                       # The number of times a branch was mispredicted
system.cpu.commit.branches                    1502438                       # Number of branches committed
system.cpu.commit.bw_lim_events               2522023                       # number cycles where commit BW limit reached
system.cpu.commit.commitNonSpecStalls            1016                       # The number of times commit has been forced to stall to communicate backwards
system.cpu.commit.commitSquashedInsts         1091935                       # The number of squashed insts skipped by commit
system.cpu.commit.committedInsts              7900208                       # Number of instructions committed
system.cpu.commit.committedOps               14710756                       # Number of ops (including micro ops) committed
system.cpu.commit.committed_per_cycle::samples      7324624                       # Number of insts commited each cycle
system.cpu.commit.committed_per_cycle::mean     2.008397                       # Number of insts commited each cycle
system.cpu.commit.committed_per_cycle::stdev     1.721006                       # Number of insts commited each cycle
system.cpu.commit.committed_per_cycle::underflows            0      0.00%      0.00% # Number of insts commited each cycle
system.cpu.commit.committed_per_cycle::0      2451072     33.46%     33.46% # Number of insts commited each cycle
system.cpu.commit.committed_per_cycle::1       941528     12.85%     46.32% # Number of insts commited each cycle
system.cpu.commit.committed_per_cycle::2       548867      7.49%     53.81% # Number of insts commited each cycle
system.cpu.commit.committed_per_cycle::3       861134     11.76%     65.57% # Number of insts commited each cycle
system.cpu.commit.committed_per_cycle::4      2522023     34.43%    100.00% # Number of insts commited each cycle
system.cpu.commit.committed_per_cycle::overflows            0      0.00%    100.00% # Number of insts commited each cycle
system.cpu.commit.committed_per_cycle::min_value            0                       # Number of insts commited each cycle
system.cpu.commit.committed_per_cycle::max_value            4                       # Number of insts commited each cycle
system.cpu.commit.committed_per_cycle::total      7324624                       # Number of insts commited each cycle
system.cpu.commit.fp_insts                     177177                       # Number of committed floating point instructions.
system.cpu.commit.function_calls               156485                       # Number of function calls committed.
system.cpu.commit.int_insts                  14574137                       # Number of committed integer instructions.
system.cpu.commit.loads                       1996846                       # Number of loads committed
system.cpu.commit.membars                           1                       # Number of memory barriers committed
system.cpu.commit.op_class_0::No_OpClass        20954      0.14%      0.14% # Class of committed instruction
system.cpu.commit.op_class_0::IntAlu         11446436     77.81%     77.95% # Class of committed instruction
system.cpu.commit.op_class_0::IntMult           35288      0.24%     78.19% # Class of committed instruction
system.cpu.commit.op_class_0::IntDiv            38415      0.26%     78.45% # Class of committed instruction
system.cpu.commit.op_class_0::FloatAdd          13051      0.09%     78.54% # Class of committed instruction
system.cpu.commit.op_class_0::FloatCmp              0      0.00%     78.54% # Class of committed instruction
system.cpu.commit.op_class_0::FloatCvt           1520      0.01%     78.55% # Class of committed instruction
system.cpu.commit.op_class_0::FloatMult             0      0.00%     78.55% # Class of committed instruction
system.cpu.commit.op_class_0::FloatMultAcc            0      0.00%     78.55% # Class of committed instruction
system.cpu.commit.op_class_0::FloatDiv              0      0.00%     78.55% # Class of committed instruction
system.cpu.commit.op_class_0::FloatMisc             0      0.00%     78.55% # Class of committed instruction
system.cpu.commit.op_class_0::FloatSqrt             0      0.00%     78.55% # Class of committed instruction
system.cpu.commit.op_class_0::SimdAdd            6414      0.04%     78.60% # Class of committed instruction
system.cpu.commit.op_class_0::SimdAddAcc            0      0.00%     78.60% # Class of committed instruction
system.cpu.commit.op_class_0::SimdAlu           11571      0.08%     78.67% # Class of committed instruction
system.cpu.commit.op_class_0::SimdCmp               0      0.00%     78.67% # Class of committed instruction
system.cpu.commit.op_class_0::SimdCvt           12578      0.09%     78.76% # Class of committed instruction
system.cpu.commit.op_class_0::SimdMisc          86777      0.59%     79.35% # Class of committed instruction
system.cpu.commit.op_class_0::SimdMult              0      0.00%     79.35% # Class of committed instruction
system.cpu.commit.op_class_0::SimdMultAcc            0      0.00%     79.35% # Class of committed instruction
system.cpu.commit.op_class_0::SimdShift          1256      0.01%     79.36% # Class of committed instruction
system.cpu.commit.op_class_0::SimdShiftAcc            0      0.00%     79.36% # Class of committed instruction
system.cpu.commit.op_class_0::SimdDiv               0      0.00%     79.36% # Class of committed instruction
system.cpu.commit.op_class_0::SimdSqrt              0      0.00%     79.36% # Class of committed instruction
system.cpu.commit.op_class_0::SimdFloatAdd            0      0.00%     79.36% # Class of committed instruction
system.cpu.commit.op_class_0::SimdFloatAlu            0      0.00%     79.36% # Class of committed instruction
system.cpu.commit.op_class_0::SimdFloatCmp            0      0.00%     79.36% # Class of committed instruction
system.cpu.commit.op_class_0::SimdFloatCvt            0      0.00%     79.36% # Class of committed instruction
system.cpu.commit.op_class_0::SimdFloatDiv            0      0.00%     79.36% # Class of committed instruction
system.cpu.commit.op_class_0::SimdFloatMisc            0      0.00%     79.36% # Class of committed instruction
system.cpu.commit.op_class_0::SimdFloatMult            0      0.00%     79.36% # Class of committed instruction
system.cpu.commit.op_class_0::SimdFloatMultAcc            0      0.00%     79.36% # Class of committed instruction
system.cpu.commit.op_class_0::SimdFloatSqrt            0      0.00%     79.36% # Class of committed instruction
system.cpu.commit.op_class_0::SimdReduceAdd            0      0.00%     79.36% # Class of committed instruction
system.cpu.commit.op_class_0::SimdReduceAlu            0      0.00%     79.36% # Class of committed instruction
system.cpu.commit.op_class_0::SimdReduceCmp            0      0.00%     79.36% # Class of committed instruction
system.cpu.commit.op_class_0::SimdFloatReduceAdd            0      0.00%     79.36% # Class of committed instruction
system.cpu.commit.op_class_0::SimdFloatReduceCmp            0      0.00%     79.36% # Class of committed instruction
system.cpu.commit.op_class_0::SimdAes               0      0.00%     79.36% # Class of committed instruction
system.cpu.commit.op_class_0::SimdAesMix            0      0.00%     79.36% # Class of committed instruction
system.cpu.commit.op_class_0::SimdSha1Hash            0      0.00%     79.36% # Class of committed instruction
system.cpu.commit.op_class_0::SimdSha1Hash2            0      0.00%     79.36% # Class of committed instruction
system.cpu.commit.op_class_0::SimdSha256Hash            0      0.00%     79.36% # Class of committed instruction
system.cpu.commit.op_class_0::SimdSha256Hash2            0      0.00%     79.36% # Class of committed instruction
system.cpu.commit.op_class_0::SimdShaSigma2            0      0.00%     79.36% # Class of committed instruction
system.cpu.commit.op_class_0::SimdShaSigma3            0      0.00%     79.36% # Class of committed instruction
system.cpu.commit.op_class_0::SimdPredAlu            0      0.00%     79.36% # Class of committed instruction
system.cpu.commit.op_class_0::MemRead         1976510     13.44%     92.79% # Class of committed instruction
system.cpu.commit.op_class_0::MemWrite        1026821      6.98%     99.77% # Class of committed instruction
system.cpu.commit.op_class_0::FloatMemRead        20336      0.14%     99.91% # Class of committed instruction
system.cpu.commit.op_class_0::FloatMemWrite        12829      0.09%    100.00% # Class of committed instruction
system.cpu.commit.op_class_0::IprAccess             0      0.00%    100.00% # Class of committed instruction
system.cpu.commit.op_class_0::InstPrefetch            0      0.00%    100.00% # Class of committed instruction
system.cpu.commit.op_class_0::total          14710756                       # Class of committed instruction
system.cpu.commit.refs                        3036496                       # Number of memory references committed
system.cpu.commit.swp_count                         0                       # Number of s/w prefetches committed
system.cpu.commit.vec_insts                         0                       # Number of committed Vector instructions.
system.cpu.committedInsts                     7900208                       # Number of Instructions Simulated
system.cpu.committedOps                      14710756                       # Number of Ops (including micro ops) Simulated
system.cpu.cpi                               0.992426                       # CPI: Cycles Per Instruction
system.cpu.cpi_total                         0.992426                       # CPI: Total CPI of All Threads
system.cpu.dcache.prefetcher.num_hwpf_issued         8460                       # number of hwpf issued
system.cpu.dcache.prefetcher.pfBufferHit        33973                       # number of redundant prefetches already in prefetch queue
system.cpu.dcache.prefetcher.pfIdentified        50150                       # number of prefetch candidates identified
system.cpu.dcache.prefetcher.pfInCache              0                       # number of redundant prefetches already in cache/mshr dropped
system.cpu.dcache.prefetcher.pfRemovedFull            0                       # number of prefetches dropped due to prefetch queue size
system.cpu.dcache.prefetcher.pfSpanPage          4738                       # number of prefetches that crossed the page
system.cpu.decode.BlockedCycles               1172840                       # Number of cycles decode is blocked
system.cpu.decode.DecodedInsts               16088799                       # Number of instructions handled by decode
system.cpu.decode.IdleCycles                  1957914                       # Number of cycles decode is idle
system.cpu.decode.RunCycles                   4329841                       # Number of cycles decode is running
system.cpu.decode.SquashCycles                  35539                       # Number of cycles decode is squashing
system.cpu.decode.UnblockCycles                128225                       # Number of cycles decode is unblocking
system.cpu.dtb.rdAccesses                     2088965                       # TLB accesses on read requests
system.cpu.dtb.rdMisses                          1937                       # TLB misses on read requests
system.cpu.dtb.wrAccesses                     1075126                       # TLB accesses on write requests
system.cpu.dtb.wrMisses                           190                       # TLB misses on write requests
system.cpu.fetch.Branches                     1678210                       # Number of branches that fetch encountered
system.cpu.fetch.CacheLines                   1185503                       # Number of cache lines fetched
system.cpu.fetch.Cycles                       5596376                       # Number of cycles fetch has run and was not squashing or blocked
system.cpu.fetch.IcacheSquashes                  6277                       # Number of outstanding Icache misses that were squashed
system.cpu.fetch.IcacheWaitRetryStallCycles           16                       # Number of stall cycles due to full MSHR
system.cpu.fetch.Insts                        8833429                       # Number of instructions fetch has processed
system.cpu.fetch.MiscStallCycles                  140                       # Number of cycles fetch has spent waiting on interrupts, or bad addresses, or out of MSHRs
system.cpu.fetch.PendingQuiesceStallCycles            8                       # Number of stall cycles due to pending quiesce instructions
system.cpu.fetch.PendingTrapStallCycles           635                       # Number of stall cycles due to pending traps
system.cpu.fetch.SquashCycles                   71078                       # Number of cycles fetch has spent squashing
system.cpu.fetch.branchRate                  0.214047                       # Number of branch fetches per cycle
system.cpu.fetch.icacheStallCycles            1991645                       # Number of cycles fetch is stalled on an Icache miss
system.cpu.fetch.predictedBranches            1008930                       # Number of branches that fetch has predicted taken
system.cpu.fetch.rate                        1.126660                       # Number of inst fetches per cycle
system.cpu.fetch.rateDist::samples            7624359                       # Number of instructions fetched each cycle (Total)
system.cpu.fetch.rateDist::mean              2.151075                       # Number of instructions fetched each cycle (Total)
system.cpu.fetch.rateDist::stdev             1.874576                       # Number of instructions fetched each cycle (Total)
system.cpu.fetch.rateDist::underflows               0      0.00%      0.00% # Number of instructions fetched each cycle (Total)
system.cpu.fetch.rateDist::0                  3009145     39.47%     39.47% # Number of instructions fetched each cycle (Total)
system.cpu.fetch.rateDist::1                   353997      4.64%     44.11% # Number of instructions fetched each cycle (Total)
system.cpu.fetch.rateDist::2                   262868      3.45%     47.56% # Number of instructions fetched each cycle (Total)
system.cpu.fetch.rateDist::3                   472564      6.20%     53.76% # Number of instructions fetched each cycle (Total)
system.cpu.fetch.rateDist::4                  3525785     46.24%    100.00% # Number of instructions fetched each cycle (Total)
system.cpu.fetch.rateDist::overflows                0      0.00%    100.00% # Number of instructions fetched each cycle (Total)
system.cpu.fetch.rateDist::min_value                0                       # Number of instructions fetched each cycle (Total)
system.cpu.fetch.rateDist::max_value                4                       # Number of instructions fetched each cycle (Total)
system.cpu.fetch.rateDist::total              7624359                       # Number of instructions fetched each cycle (Total)
system.cpu.fp_regfile_reads                    283727                       # number of floating regfile reads
system.cpu.fp_regfile_writes                   158163                       # number of floating regfile writes
system.cpu.fuPool.fu_ticks_busy::IntALU(0)    800063600                       # Total ticks fu was busy
system.cpu.fuPool.fu_ticks_busy::IntALU(1)    800063600                       # Total ticks fu was busy
system.cpu.fuPool.fu_ticks_busy::IntALU(2)    800063600                       # Total ticks fu was busy
system.cpu.fuPool.fu_ticks_busy::IntALU(3)    800063600                       # Total ticks fu was busy
system.cpu.fuPool.fu_ticks_busy::IntALU(4)    800063600                       # Total ticks fu was busy
system.cpu.fuPool.fu_ticks_busy::IntALU(5)    800063600                       # Total ticks fu was busy
system.cpu.fuPool.fu_ticks_busy::IntMultDiv(0)     15598800                       # Total ticks fu was busy
system.cpu.fuPool.fu_ticks_busy::IntMultDiv(1)     15598400                       # Total ticks fu was busy
system.cpu.fuPool.fu_ticks_busy::FP_ALU(0)      1614800                       # Total ticks fu was busy
system.cpu.fuPool.fu_ticks_busy::FP_ALU(1)      1614400                       # Total ticks fu was busy
system.cpu.fuPool.fu_ticks_busy::FP_ALU(2)      1614400                       # Total ticks fu was busy
system.cpu.fuPool.fu_ticks_busy::FP_ALU(3)      1614000                       # Total ticks fu was busy
system.cpu.fuPool.fu_ticks_busy::FP_MultDiv(0)            0                       # Total ticks fu was busy
system.cpu.fuPool.fu_ticks_busy::FP_MultDiv(1)            0                       # Total ticks fu was busy
system.cpu.fuPool.fu_ticks_busy::SIMD_Unit(0)     12674400                       # Total ticks fu was busy
system.cpu.fuPool.fu_ticks_busy::SIMD_Unit(1)     12696800                       # Total ticks fu was busy
system.cpu.fuPool.fu_ticks_busy::SIMD_Unit(2)     12540800                       # Total ticks fu was busy
system.cpu.fuPool.fu_ticks_busy::SIMD_Unit(3)     12505600                       # Total ticks fu was busy
system.cpu.fuPool.fu_ticks_busy::PredALU(0)            0                       # Total ticks fu was busy
system.cpu.fuPool.fu_ticks_busy::RdWrPort(0)    318430400                       # Total ticks fu was busy
system.cpu.fuPool.fu_ticks_busy::RdWrPort(1)    318416000                       # Total ticks fu was busy
system.cpu.fuPool.fu_ticks_busy::RdWrPort(2)    318480000                       # Total ticks fu was busy
system.cpu.fuPool.fu_ticks_busy::RdWrPort(3)    318404000                       # Total ticks fu was busy
system.cpu.fuPool.fu_ticks_busy::IprPort(0)            0                       # Total ticks fu was busy
system.cpu.fuPool.fu_ticks_busy::total     6162184400                       # Total ticks fu was busy
system.cpu.icache.prefetcher.num_hwpf_issued            0                       # number of hwpf issued
system.cpu.icache.prefetcher.pfBufferHit            0                       # number of redundant prefetches already in prefetch queue
system.cpu.icache.prefetcher.pfIdentified            0                       # number of prefetch candidates identified
system.cpu.icache.prefetcher.pfInCache              0                       # number of redundant prefetches already in cache/mshr dropped
system.cpu.icache.prefetcher.pfRemovedFull            0                       # number of prefetches dropped due to prefetch queue size
system.cpu.icache.prefetcher.pfSpanPage             0                       # number of prefetches that crossed the page
system.cpu.idleCycles                          216009                       # Total number of cycles that the CPU has spent unscheduled due to idling
system.cpu.iew.branchMispredicts                40672                       # Number of branch mispredicts detected at execute
system.cpu.iew.exec_branches                  1543061                       # Number of branches executed
system.cpu.iew.exec_nop                             0                       # number of nop insts executed
system.cpu.iew.exec_rate                     1.961794                       # Inst execution rate
system.cpu.iew.exec_refs                      3165848                       # number of memory reference insts executed
system.cpu.iew.exec_stores                    1075110                       # Number of stores executed
system.cpu.iew.exec_swp                             0                       # number of swp insts executed
system.cpu.iew.iewBlockCycles                  741112                       # Number of cycles IEW is blocking
system.cpu.iew.iewDispLoadInsts               2129381                       # Number of dispatched load instructions
system.cpu.iew.iewDispNonSpecInsts               1988                       # Number of dispatched non-speculative instructions
system.cpu.iew.iewDispSquashedInsts              1012                       # Number of squashed instructions skipped by dispatch
system.cpu.iew.iewDispStoreInsts              1095099                       # Number of dispatched store instructions
system.cpu.iew.iewDispatchedInsts            15802630                       # Number of instructions dispatched to IQ
system.cpu.iew.iewExecLoadInsts               2090738                       # Number of load instructions executed
system.cpu.iew.iewExecSquashedInsts             51883                       # Number of squashed instructions skipped in execute
system.cpu.iew.iewExecutedInsts              15381189                       # Number of executed instructions
system.cpu.iew.iewIQFullEvents                   3394                       # Number of times the IQ has become full, causing a stall
system.cpu.iew.iewIdleCycles                        0                       # Number of cycles IEW is idle
system.cpu.iew.iewLSQFullEvents                 10043                       # Number of times the LSQ has become full, causing a stall
system.cpu.iew.iewSquashCycles                  35539                       # Number of cycles IEW is squashing
system.cpu.iew.iewUnblockCycles                 16331                       # Number of cycles IEW is unblocking
system.cpu.iew.lsq.thread0.blockedLoads             0                       # Number of blocked loads due to partial load-store forwarding
system.cpu.iew.lsq.thread0.cacheBlocked           627                       # Number of times an access to memory failed due to the cache being blocked
system.cpu.iew.lsq.thread0.forwLoads           117103                       # Number of loads that had data forwarded from stores
system.cpu.iew.lsq.thread0.ignoredResponses          505                       # Number of memory responses ignored because the instruction is squashed
system.cpu.iew.lsq.thread0.invAddrLoads             0                       # Number of loads ignored due to an invalid address
system.cpu.iew.lsq.thread0.invAddrSwpfs             0                       # Number of software prefetches ignored due to an invalid address
system.cpu.iew.lsq.thread0.memOrderViolation          103                       # Number of memory ordering violations
system.cpu.iew.lsq.thread0.rescheduledLoads            0                       # Number of loads that were rescheduled
system.cpu.iew.lsq.thread0.squashedLoads       132533                       # Number of loads squashed
system.cpu.iew.lsq.thread0.squashedStores        55448                       # Number of stores squashed
system.cpu.iew.memOrderViolationEvents            103                       # Number of memory order violations
system.cpu.iew.predictedNotTakenIncorrect        28620                       # Number of branches that were predicted not taken incorrectly
system.cpu.iew.predictedTakenIncorrect          12052                       # Number of branches that were predicted taken incorrectly
system.cpu.iew.wb_consumers                  17190430                       # num instructions consuming a value
system.cpu.iew.wb_count                      15357081                       # cumulative count of insts written-back
system.cpu.iew.wb_fanout                     0.620482                       # average fanout of values written-back
system.cpu.iew.wb_producers                  10666347                       # num instructions producing a value
system.cpu.iew.wb_rate                       1.958719                       # insts written-back per cycle
system.cpu.iew.wb_sent                       15364475                       # cumulative count of insts sent to commit
system.cpu.int_regfile_reads                 24280009                       # number of integer regfile reads
system.cpu.int_regfile_writes                12692258                       # number of integer regfile writes
system.cpu.ipc                               1.007632                       # IPC: Instructions Per Cycle
system.cpu.ipc_total                         1.007632                       # IPC: Total IPC of All Threads
system.cpu.iq.FU_type_0::No_OpClass             27611      0.18%      0.18% # Type of FU issued
system.cpu.iq.FU_type_0::IntAlu              12000955     77.76%     77.94% # Type of FU issued
system.cpu.iq.FU_type_0::IntMult                35450      0.23%     78.17% # Type of FU issued
system.cpu.iq.FU_type_0::IntDiv                 42543      0.28%     78.45% # Type of FU issued
system.cpu.iq.FU_type_0::FloatAdd               14563      0.09%     78.54% # Type of FU issued
system.cpu.iq.FU_type_0::FloatCmp                   0      0.00%     78.54% # Type of FU issued
system.cpu.iq.FU_type_0::FloatCvt                1581      0.01%     78.55% # Type of FU issued
system.cpu.iq.FU_type_0::FloatMult                  0      0.00%     78.55% # Type of FU issued
system.cpu.iq.FU_type_0::FloatMultAcc               0      0.00%     78.55% # Type of FU issued
system.cpu.iq.FU_type_0::FloatDiv                   0      0.00%     78.55% # Type of FU issued
system.cpu.iq.FU_type_0::FloatMisc                  0      0.00%     78.55% # Type of FU issued
system.cpu.iq.FU_type_0::FloatSqrt                  0      0.00%     78.55% # Type of FU issued
system.cpu.iq.FU_type_0::SimdAdd                 6979      0.05%     78.60% # Type of FU issued
system.cpu.iq.FU_type_0::SimdAddAcc                 0      0.00%     78.60% # Type of FU issued
system.cpu.iq.FU_type_0::SimdAlu                15335      0.10%     78.69% # Type of FU issued
system.cpu.iq.FU_type_0::SimdCmp                    0      0.00%     78.69% # Type of FU issued
system.cpu.iq.FU_type_0::SimdCvt                14147      0.09%     78.79% # Type of FU issued
system.cpu.iq.FU_type_0::SimdMisc               87294      0.57%     79.35% # Type of FU issued
system.cpu.iq.FU_type_0::SimdMult                   0      0.00%     79.35% # Type of FU issued
system.cpu.iq.FU_type_0::SimdMultAcc                0      0.00%     79.35% # Type of FU issued
system.cpu.iq.FU_type_0::SimdShift               2289      0.01%     79.37% # Type of FU issued
system.cpu.iq.FU_type_0::SimdShiftAcc               0      0.00%     79.37% # Type of FU issued
system.cpu.iq.FU_type_0::SimdDiv                    0      0.00%     79.37% # Type of FU issued
system.cpu.iq.FU_type_0::SimdSqrt                   0      0.00%     79.37% # Type of FU issued
system.cpu.iq.FU_type_0::SimdFloatAdd               0      0.00%     79.37% # Type of FU issued
system.cpu.iq.FU_type_0::SimdFloatAlu               0      0.00%     79.37% # Type of FU issued
system.cpu.iq.FU_type_0::SimdFloatCmp               0      0.00%     79.37% # Type of FU issued
system.cpu.iq.FU_type_0::SimdFloatCvt               0      0.00%     79.37% # Type of FU issued
system.cpu.iq.FU_type_0::SimdFloatDiv               0      0.00%     79.37% # Type of FU issued
system.cpu.iq.FU_type_0::SimdFloatMisc              0      0.00%     79.37% # Type of FU issued
system.cpu.iq.FU_type_0::SimdFloatMult              0      0.00%     79.37% # Type of FU issued
system.cpu.iq.FU_type_0::SimdFloatMultAcc            0      0.00%     79.37% # Type of FU issued
system.cpu.iq.FU_type_0::SimdFloatSqrt              0      0.00%     79.37% # Type of FU issued
system.cpu.iq.FU_type_0::SimdReduceAdd              0      0.00%     79.37% # Type of FU issued
system.cpu.iq.FU_type_0::SimdReduceAlu              0      0.00%     79.37% # Type of FU issued
system.cpu.iq.FU_type_0::SimdReduceCmp              0      0.00%     79.37% # Type of FU issued
system.cpu.iq.FU_type_0::SimdFloatReduceAdd            0      0.00%     79.37% # Type of FU issued
system.cpu.iq.FU_type_0::SimdFloatReduceCmp            0      0.00%     79.37% # Type of FU issued
system.cpu.iq.FU_type_0::SimdAes                    0      0.00%     79.37% # Type of FU issued
system.cpu.iq.FU_type_0::SimdAesMix                 0      0.00%     79.37% # Type of FU issued
system.cpu.iq.FU_type_0::SimdSha1Hash               0      0.00%     79.37% # Type of FU issued
system.cpu.iq.FU_type_0::SimdSha1Hash2              0      0.00%     79.37% # Type of FU issued
system.cpu.iq.FU_type_0::SimdSha256Hash             0      0.00%     79.37% # Type of FU issued
system.cpu.iq.FU_type_0::SimdSha256Hash2            0      0.00%     79.37% # Type of FU issued
system.cpu.iq.FU_type_0::SimdShaSigma2              0      0.00%     79.37% # Type of FU issued
system.cpu.iq.FU_type_0::SimdShaSigma3              0      0.00%     79.37% # Type of FU issued
system.cpu.iq.FU_type_0::SimdPredAlu                0      0.00%     79.37% # Type of FU issued
system.cpu.iq.FU_type_0::MemRead              2076962     13.46%     92.82% # Type of FU issued
system.cpu.iq.FU_type_0::MemWrite             1066747      6.91%     99.74% # Type of FU issued
system.cpu.iq.FU_type_0::FloatMemRead           26169      0.17%     99.91% # Type of FU issued
system.cpu.iq.FU_type_0::FloatMemWrite          14450      0.09%    100.00% # Type of FU issued
system.cpu.iq.FU_type_0::IprAccess                  0      0.00%    100.00% # Type of FU issued
system.cpu.iq.FU_type_0::InstPrefetch               0      0.00%    100.00% # Type of FU issued
system.cpu.iq.FU_type_0::total               15433075                       # Type of FU issued
system.cpu.iq.fp_alu_accesses                  193818                       # Number of floating point alu accesses
system.cpu.iq.fp_inst_queue_reads              388901                       # Number of floating instruction queue reads
system.cpu.iq.fp_inst_queue_wakeup_accesses       190431                       # Number of floating instruction queue wakeup accesses
system.cpu.iq.fp_inst_queue_writes             234223                       # Number of floating instruction queue writes
system.cpu.iq.fu_busy_cnt                           0                       # FU busy when requested
system.cpu.iq.fu_busy_rate                          0                       # FU busy rate (busy events/executed inst)
system.cpu.iq.fu_full::No_OpClass                   0                       # attempts to use FU when none available
system.cpu.iq.fu_full::IntAlu                       0                       # attempts to use FU when none available
system.cpu.iq.fu_full::IntMult                      0                       # attempts to use FU when none available
system.cpu.iq.fu_full::IntDiv                       0                       # attempts to use FU when none available
system.cpu.iq.fu_full::FloatAdd                     0                       # attempts to use FU when none available
system.cpu.iq.fu_full::FloatCmp                     0                       # attempts to use FU when none available
system.cpu.iq.fu_full::FloatCvt                     0                       # attempts to use FU when none available
system.cpu.iq.fu_full::FloatMult                    0                       # attempts to use FU when none available
system.cpu.iq.fu_full::FloatMultAcc                 0                       # attempts to use FU when none available
system.cpu.iq.fu_full::FloatDiv                     0                       # attempts to use FU when none available
system.cpu.iq.fu_full::FloatMisc                    0                       # attempts to use FU when none available
system.cpu.iq.fu_full::FloatSqrt                    0                       # attempts to use FU when none available
system.cpu.iq.fu_full::SimdAdd                      0                       # attempts to use FU when none available
system.cpu.iq.fu_full::SimdAddAcc                   0                       # attempts to use FU when none available
system.cpu.iq.fu_full::SimdAlu                      0                       # attempts to use FU when none available
system.cpu.iq.fu_full::SimdCmp                      0                       # attempts to use FU when none available
system.cpu.iq.fu_full::SimdCvt                      0                       # attempts to use FU when none available
system.cpu.iq.fu_full::SimdMisc                     0                       # attempts to use FU when none available
system.cpu.iq.fu_full::SimdMult                     0                       # attempts to use FU when none available
system.cpu.iq.fu_full::SimdMultAcc                  0                       # attempts to use FU when none available
system.cpu.iq.fu_full::SimdShift                    0                       # attempts to use FU when none available
system.cpu.iq.fu_full::SimdShiftAcc                 0                       # attempts to use FU when none available
system.cpu.iq.fu_full::SimdDiv                      0                       # attempts to use FU when none available
system.cpu.iq.fu_full::SimdSqrt                     0                       # attempts to use FU when none available
system.cpu.iq.fu_full::SimdFloatAdd                 0                       # attempts to use FU when none available
system.cpu.iq.fu_full::SimdFloatAlu                 0                       # attempts to use FU when none available
system.cpu.iq.fu_full::SimdFloatCmp                 0                       # attempts to use FU when none available
system.cpu.iq.fu_full::SimdFloatCvt                 0                       # attempts to use FU when none available
system.cpu.iq.fu_full::SimdFloatDiv                 0                       # attempts to use FU when none available
system.cpu.iq.fu_full::SimdFloatMisc                0                       # attempts to use FU when none available
system.cpu.iq.fu_full::SimdFloatMult                0                       # attempts to use FU when none available
system.cpu.iq.fu_full::SimdFloatMultAcc             0                       # attempts to use FU when none available
system.cpu.iq.fu_full::SimdFloatSqrt                0                       # attempts to use FU when none available
system.cpu.iq.fu_full::SimdReduceAdd                0                       # attempts to use FU when none available
system.cpu.iq.fu_full::SimdReduceAlu                0                       # attempts to use FU when none available
system.cpu.iq.fu_full::SimdReduceCmp                0                       # attempts to use FU when none available
system.cpu.iq.fu_full::SimdFloatReduceAdd            0                       # attempts to use FU when none available
system.cpu.iq.fu_full::SimdFloatReduceCmp            0                       # attempts to use FU when none available
system.cpu.iq.fu_full::SimdAes                      0                       # attempts to use FU when none available
system.cpu.iq.fu_full::SimdAesMix                   0                       # attempts to use FU when none available
system.cpu.iq.fu_full::SimdSha1Hash                 0                       # attempts to use FU when none available
system.cpu.iq.fu_full::SimdSha1Hash2                0                       # attempts to use FU when none available
system.cpu.iq.fu_full::SimdSha256Hash               0                       # attempts to use FU when none available
system.cpu.iq.fu_full::SimdSha256Hash2              0                       # attempts to use FU when none available
system.cpu.iq.fu_full::SimdShaSigma2                0                       # attempts to use FU when none available
system.cpu.iq.fu_full::SimdShaSigma3                0                       # attempts to use FU when none available
system.cpu.iq.fu_full::SimdPredAlu                  0                       # attempts to use FU when none available
system.cpu.iq.fu_full::MemRead                      0                       # attempts to use FU when none available
system.cpu.iq.fu_full::MemWrite                     0                       # attempts to use FU when none available
system.cpu.iq.fu_full::FloatMemRead                 0                       # attempts to use FU when none available
system.cpu.iq.fu_full::FloatMemWrite                0                       # attempts to use FU when none available
system.cpu.iq.fu_full::IprAccess                    0                       # attempts to use FU when none available
system.cpu.iq.fu_full::InstPrefetch                 0                       # attempts to use FU when none available
system.cpu.iq.int_alu_accesses               15211646                       # Number of integer alu accesses
system.cpu.iq.int_inst_queue_reads           38121899                       # Number of integer instruction queue reads
system.cpu.iq.int_inst_queue_wakeup_accesses     15166650                       # Number of integer instruction queue wakeup accesses
system.cpu.iq.int_inst_queue_writes          16660371                       # Number of integer instruction queue writes
system.cpu.iq.iqInstsAdded                   15798929                       # Number of instructions added to the IQ (excludes non-spec)
system.cpu.iq.iqInstsIssued                  15433075                       # Number of instructions issued
system.cpu.iq.iqNonSpecInstsAdded                3701                       # Number of non-speculative instructions added to the IQ
system.cpu.iq.iqSquashedInstsExamined         1091863                       # Number of squashed instructions iterated over during squash; mainly for profiling
system.cpu.iq.iqSquashedInstsIssued             20294                       # Number of squashed instructions issued
system.cpu.iq.iqSquashedNonSpecRemoved           2685                       # Number of squashed non-spec instructions that were removed
system.cpu.iq.iqSquashedOperandsExamined      1509498                       # Number of squashed operands that are examined and possibly removed from graph
system.cpu.iq.issued_per_cycle::samples       7624359                       # Number of insts issued each cycle
system.cpu.iq.issued_per_cycle::mean         2.024180                       # Number of insts issued each cycle
system.cpu.iq.issued_per_cycle::stdev        1.572315                       # Number of insts issued each cycle
system.cpu.iq.issued_per_cycle::underflows            0      0.00%      0.00% # Number of insts issued each cycle
system.cpu.iq.issued_per_cycle::0             2165700     28.41%     28.41% # Number of insts issued each cycle
system.cpu.iq.issued_per_cycle::1              827385     10.85%     39.26% # Number of insts issued each cycle
system.cpu.iq.issued_per_cycle::2             1298067     17.03%     56.28% # Number of insts issued each cycle
system.cpu.iq.issued_per_cycle::3             1323272     17.36%     73.64% # Number of insts issued each cycle
system.cpu.iq.issued_per_cycle::4             2009935     26.36%    100.00% # Number of insts issued each cycle
system.cpu.iq.issued_per_cycle::overflows            0      0.00%    100.00% # Number of insts issued each cycle
system.cpu.iq.issued_per_cycle::min_value            0                       # Number of insts issued each cycle
system.cpu.iq.issued_per_cycle::max_value            4                       # Number of insts issued each cycle
system.cpu.iq.issued_per_cycle::total         7624359                       # Number of insts issued each cycle
system.cpu.iq.rate                           1.968412                       # Inst issue rate
system.cpu.iq.vec_alu_accesses                      0                       # Number of vector alu accesses
system.cpu.iq.vec_inst_queue_reads                  0                       # Number of vector instruction queue reads
system.cpu.iq.vec_inst_queue_wakeup_accesses            0                       # Number of vector instruction queue wakeup accesses
system.cpu.iq.vec_inst_queue_writes                 0                       # Number of vector instruction queue writes
system.cpu.itb.rdAccesses                           0                       # TLB accesses on read requests
system.cpu.itb.rdMisses                             0                       # TLB misses on read requests
system.cpu.itb.wrAccesses                     1185615                       # TLB accesses on write requests
system.cpu.itb.wrMisses                           368                       # TLB misses on write requests
system.cpu.memDep0.conflictingLoads             28917                       # Number of conflicting loads.
system.cpu.memDep0.conflictingStores            27925                       # Number of conflicting stores.
system.cpu.memDep0.insertedLoads              2129381                       # Number of loads inserted to the mem dependence unit.
system.cpu.memDep0.insertedStores             1095099                       # Number of stores inserted to the mem dependence unit.
system.cpu.misc_regfile_reads                 6251918                       # number of misc regfile reads
system.cpu.misc_regfile_writes                    855                       # number of misc regfile writes
system.cpu.numCycles                          7840368                       # number of cpu cycles simulated
system.cpu.numWorkItemsCompleted                    0                       # number of work items this cpu completed
system.cpu.numWorkItemsStarted                      0                       # number of work items this cpu started
system.cpu.process.numSyscalls                    160                       # Number of system calls
system.cpu.rename.BlockCycles                  913324                       # Number of cycles rename is blocking
system.cpu.rename.CommittedMaps              17198485                       # Number of HB maps that are committed
system.cpu.rename.FullRegisterEvents               68                       # Number of times there has been no free registers
system.cpu.rename.IQFullEvents                  86681                       # Number of times rename has blocked due to IQ full
system.cpu.rename.IdleCycles                  2031125                       # Number of cycles rename is idle
system.cpu.rename.LQFullEvents                  17252                       # Number of times rename has blocked due to LQ full
system.cpu.rename.ROBFullEvents                  4416                       # Number of times rename has blocked due to ROB full
system.cpu.rename.RenameLookups              39847770                       # Number of register rename lookups that rename has made
system.cpu.rename.RenamedInsts               15994629                       # Number of instructions processed by rename
system.cpu.rename.RenamedOperands            18880465                       # Number of destination operands rename has renamed
system.cpu.rename.RunCycles                   4373044                       # Number of cycles rename is running
system.cpu.rename.SQFullEvents                  95982                       # Number of times rename has blocked due to SQ full
system.cpu.rename.SquashCycles                  35539                       # Number of cycles rename is squashing
system.cpu.rename.UnblockCycles                247186                       # Number of cycles rename is unblocking
system.cpu.rename.UndoneMaps                  1681957                       # Number of HB maps that are undone due to squashing
system.cpu.rename.fp_rename_lookups            318380                       # Number of floating rename lookups
system.cpu.rename.int_rename_lookups         25436617                       # Number of integer rename lookups
system.cpu.rename.serializeStallCycles          24141                       # count of cycles rename stalled for serializing inst
system.cpu.rename.serializingInsts               1171                       # count of serializing insts renamed
system.cpu.rename.skidInsts                    309281                       # count of insts added to the skid buffer
system.cpu.rename.tempSerializingInsts           1231                       # count of temporary serializing insts renamed
system.cpu.rob.rob_reads                     20605292                       # The number of ROB reads
system.cpu.rob.rob_writes                    31907047                       # The number of ROB writes
system.cpu.timesIdled                           13474                       # Number of times that the entire CPU went into an idle state and unscheduled itself
system.l2bus.snoop_filter.hit_multi_requests           14                       # Number of requests hitting in the snoop filter with multiple (>1) holders of the requested data.
system.l2bus.snoop_filter.hit_multi_snoops            0                       # Number of snoops hitting in the snoop filter with multiple (>1) holders of the requested data.
system.l2bus.snoop_filter.hit_single_requests        51410                       # Number of requests hitting in the snoop filter with a single holder of the requested data.
system.l2bus.snoop_filter.hit_single_snoops          476                       # Number of snoops hitting in the snoop filter with a single holder of the requested data.
system.l2bus.snoop_filter.tot_requests         104101                       # Total number of requests made to the snoop filter.
system.l2bus.snoop_filter.tot_snoops              476                       # Total number of snoops made to the snoop filter.
system.l2cache.prefetcher.num_hwpf_issued          692                       # number of hwpf issued
system.l2cache.prefetcher.pfBufferHit               0                       # number of redundant prefetches already in prefetch queue
system.l2cache.prefetcher.pfIdentified            692                       # number of prefetch candidates identified
system.l2cache.prefetcher.pfInCache                 0                       # number of redundant prefetches already in cache/mshr dropped
system.l2cache.prefetcher.pfRemovedFull             0                       # number of prefetches dropped due to prefetch queue size
system.l2cache.prefetcher.pfSpanPage               80                       # number of prefetches that crossed the page
system.membus.snoop_filter.hit_multi_requests            0                       # Number of requests hitting in the snoop filter with multiple (>1) holders of the requested data.
system.membus.snoop_filter.hit_multi_snoops            0                       # Number of snoops hitting in the snoop filter with multiple (>1) holders of the requested data.
system.membus.snoop_filter.hit_single_requests        10389                       # Number of requests hitting in the snoop filter with a single holder of the requested data.
system.membus.snoop_filter.hit_single_snoops            0                       # Number of snoops hitting in the snoop filter with a single holder of the requested data.
system.membus.snoop_filter.tot_requests         24894                       # Total number of requests made to the snoop filter.
system.membus.snoop_filter.tot_snoops               0                       # Total number of snoops made to the snoop filter.
system.membus.pwrStateResidencyTicks::UNDEFINED   3136146800                       # Cumulative time (in ticks) in various power states
system.membus.trans_dist::ReadResp              12623                       # Transaction distribution
system.membus.trans_dist::WritebackDirty         1415                       # Transaction distribution
system.membus.trans_dist::CleanEvict             8974                       # Transaction distribution
system.membus.trans_dist::ReadExReq              1882                       # Transaction distribution
system.membus.trans_dist::ReadExResp             1882                       # Transaction distribution
system.membus.trans_dist::ReadSharedReq         12623                       # Transaction distribution
system.membus.pkt_count_system.l2cache.mem_side::system.mem_ctrl.port        39399                       # Packet count per connected master and slave (bytes)
system.membus.pkt_count_system.l2cache.mem_side::total        39399                       # Packet count per connected master and slave (bytes)
system.membus.pkt_count::total                  39399                       # Packet count per connected master and slave (bytes)
system.membus.pkt_size_system.l2cache.mem_side::system.mem_ctrl.port      1018880                       # Cumulative packet size per connected master and slave (bytes)
system.membus.pkt_size_system.l2cache.mem_side::total      1018880                       # Cumulative packet size per connected master and slave (bytes)
system.membus.pkt_size::total                 1018880                       # Cumulative packet size per connected master and slave (bytes)
system.membus.snoops                                0                       # Total snoops (count)
system.membus.snoopTraffic                          0                       # Total snoop traffic (bytes)
system.membus.snoop_fanout::samples             14505                       # Request fanout histogram
system.membus.snoop_fanout::mean                    0                       # Request fanout histogram
system.membus.snoop_fanout::stdev                   0                       # Request fanout histogram
system.membus.snoop_fanout::underflows              0      0.00%      0.00% # Request fanout histogram
system.membus.snoop_fanout::0                   14505    100.00%    100.00% # Request fanout histogram
system.membus.snoop_fanout::1                       0      0.00%    100.00% # Request fanout histogram
system.membus.snoop_fanout::overflows               0      0.00%    100.00% # Request fanout histogram
system.membus.snoop_fanout::min_value               0                       # Request fanout histogram
system.membus.snoop_fanout::max_value               0                       # Request fanout histogram
system.membus.snoop_fanout::total               14505                       # Request fanout histogram
system.membus.reqLayer2.occupancy            12249166                       # Layer occupancy (ticks)
system.membus.reqLayer2.utilization               0.4                       # Layer utilization (%)
system.membus.respLayer0.occupancy           31458234                       # Layer occupancy (ticks)
system.membus.respLayer0.utilization              1.0                       # Layer utilization (%)
system.l2bus.pwrStateResidencyTicks::UNDEFINED   3136146800                       # Cumulative time (in ticks) in various power states
system.l2bus.trans_dist::ReadResp               50061                       # Transaction distribution
system.l2bus.trans_dist::WritebackDirty          4855                       # Transaction distribution
system.l2bus.trans_dist::CleanEvict             57038                       # Transaction distribution
system.l2bus.trans_dist::HardPFReq               1012                       # Transaction distribution
system.l2bus.trans_dist::ReadExReq               2629                       # Transaction distribution
system.l2bus.trans_dist::ReadExResp              2629                       # Transaction distribution
system.l2bus.trans_dist::ReadSharedReq          50062                       # Transaction distribution
system.l2bus.pkt_count_system.cpu.icache.mem_side::system.l2cache.cpu_side       102696                       # Packet count per connected master and slave (bytes)
system.l2bus.pkt_count_system.cpu.dcache.mem_side::system.l2cache.cpu_side        54089                       # Packet count per connected master and slave (bytes)
system.l2bus.pkt_count::total                  156785                       # Packet count per connected master and slave (bytes)
system.l2bus.pkt_size_system.cpu.icache.mem_side::system.l2cache.cpu_side      2196352                       # Cumulative packet size per connected master and slave (bytes)
system.l2bus.pkt_size_system.cpu.dcache.mem_side::system.l2cache.cpu_side      1395584                       # Cumulative packet size per connected master and slave (bytes)
system.l2bus.pkt_size::total                  3591936                       # Cumulative packet size per connected master and slave (bytes)
system.l2bus.snoops                             11501                       # Total snoops (count)
system.l2bus.snoopTraffic                       90944                       # Total snoop traffic (bytes)
system.l2bus.snoop_fanout::samples              64186                       # Request fanout histogram
system.l2bus.snoop_fanout::mean              0.007634                       # Request fanout histogram
system.l2bus.snoop_fanout::stdev             0.087040                       # Request fanout histogram
system.l2bus.snoop_fanout::underflows               0      0.00%      0.00% # Request fanout histogram
system.l2bus.snoop_fanout::0                    63696     99.24%     99.24% # Request fanout histogram
system.l2bus.snoop_fanout::1                      490      0.76%    100.00% # Request fanout histogram
system.l2bus.snoop_fanout::2                        0      0.00%    100.00% # Request fanout histogram
system.l2bus.snoop_fanout::overflows                0      0.00%    100.00% # Request fanout histogram
system.l2bus.snoop_fanout::min_value                0                       # Request fanout histogram
system.l2bus.snoop_fanout::max_value                1                       # Request fanout histogram
system.l2bus.snoop_fanout::total                64186                       # Request fanout histogram
system.l2bus.respLayer1.occupancy            22047198                       # Layer occupancy (ticks)
system.l2bus.respLayer1.utilization               0.7                       # Layer utilization (%)
system.l2bus.reqLayer0.occupancy             45931504                       # Layer occupancy (ticks)
system.l2bus.reqLayer0.utilization                1.5                       # Layer utilization (%)
system.l2bus.respLayer0.occupancy            41183595                       # Layer occupancy (ticks)
system.l2bus.respLayer0.utilization               1.3                       # Layer utilization (%)
system.clk_domain.clock                           400                       # Clock period in ticks
system.clk_domain.voltage_domain.voltage            1                       # Voltage in Volts
system.cpu.pwrStateResidencyTicks::ON      3136146800                       # Cumulative time (in ticks) in various power states
system.cpu.icache.pwrStateResidencyTicks::UNDEFINED   3136146800                       # Cumulative time (in ticks) in various power states
system.cpu.icache.demand_hits::.cpu.inst      1150427                       # number of demand (read+write) hits
system.cpu.icache.demand_hits::total          1150427                       # number of demand (read+write) hits
system.cpu.icache.overall_hits::.cpu.inst      1150427                       # number of overall hits
system.cpu.icache.overall_hits::total         1150427                       # number of overall hits
system.cpu.icache.demand_misses::.cpu.inst        35075                       # number of demand (read+write) misses
system.cpu.icache.demand_misses::total          35075                       # number of demand (read+write) misses
system.cpu.icache.overall_misses::.cpu.inst        35075                       # number of overall misses
system.cpu.icache.overall_misses::total         35075                       # number of overall misses
system.cpu.icache.demand_miss_latency::.cpu.inst    510968400                       # number of demand (read+write) miss cycles
system.cpu.icache.demand_miss_latency::total    510968400                       # number of demand (read+write) miss cycles
system.cpu.icache.overall_miss_latency::.cpu.inst    510968400                       # number of overall miss cycles
system.cpu.icache.overall_miss_latency::total    510968400                       # number of overall miss cycles
system.cpu.icache.demand_accesses::.cpu.inst      1185502                       # number of demand (read+write) accesses
system.cpu.icache.demand_accesses::total      1185502                       # number of demand (read+write) accesses
system.cpu.icache.overall_accesses::.cpu.inst      1185502                       # number of overall (read+write) accesses
system.cpu.icache.overall_accesses::total      1185502                       # number of overall (read+write) accesses
system.cpu.icache.demand_miss_rate::.cpu.inst     0.029587                       # miss rate for demand accesses
system.cpu.icache.demand_miss_rate::total     0.029587                       # miss rate for demand accesses
system.cpu.icache.overall_miss_rate::.cpu.inst     0.029587                       # miss rate for overall accesses
system.cpu.icache.overall_miss_rate::total     0.029587                       # miss rate for overall accesses
system.cpu.icache.demand_avg_miss_latency::.cpu.inst 14567.880257                       # average overall miss latency
system.cpu.icache.demand_avg_miss_latency::total 14567.880257                       # average overall miss latency
system.cpu.icache.overall_avg_miss_latency::.cpu.inst 14567.880257                       # average overall miss latency
system.cpu.icache.overall_avg_miss_latency::total 14567.880257                       # average overall miss latency
system.cpu.icache.blocked_cycles::no_mshrs          276                       # number of cycles access was blocked
system.cpu.icache.blocked_cycles::no_targets            0                       # number of cycles access was blocked
system.cpu.icache.blocked::no_mshrs                 5                       # number of cycles access was blocked
system.cpu.icache.blocked::no_targets               0                       # number of cycles access was blocked
system.cpu.icache.avg_blocked_cycles::no_mshrs    55.200000                       # average number of cycles each access was blocked
system.cpu.icache.avg_blocked_cycles::no_targets          nan                       # average number of cycles each access was blocked
system.cpu.icache.writebacks::.writebacks            3                       # number of writebacks
system.cpu.icache.writebacks::total                 3                       # number of writebacks
system.cpu.icache.demand_mshr_hits::.cpu.inst          756                       # number of demand (read+write) MSHR hits
system.cpu.icache.demand_mshr_hits::total          756                       # number of demand (read+write) MSHR hits
system.cpu.icache.overall_mshr_hits::.cpu.inst          756                       # number of overall MSHR hits
system.cpu.icache.overall_mshr_hits::total          756                       # number of overall MSHR hits
system.cpu.icache.demand_mshr_misses::.cpu.inst        34319                       # number of demand (read+write) MSHR misses
system.cpu.icache.demand_mshr_misses::total        34319                       # number of demand (read+write) MSHR misses
system.cpu.icache.overall_mshr_misses::.cpu.inst        34319                       # number of overall MSHR misses
system.cpu.icache.overall_mshr_misses::total        34319                       # number of overall MSHR misses
system.cpu.icache.demand_mshr_miss_latency::.cpu.inst    450524400                       # number of demand (read+write) MSHR miss cycles
system.cpu.icache.demand_mshr_miss_latency::total    450524400                       # number of demand (read+write) MSHR miss cycles
system.cpu.icache.overall_mshr_miss_latency::.cpu.inst    450524400                       # number of overall MSHR miss cycles
system.cpu.icache.overall_mshr_miss_latency::total    450524400                       # number of overall MSHR miss cycles
system.cpu.icache.demand_mshr_miss_rate::.cpu.inst     0.028949                       # mshr miss rate for demand accesses
system.cpu.icache.demand_mshr_miss_rate::total     0.028949                       # mshr miss rate for demand accesses
system.cpu.icache.overall_mshr_miss_rate::.cpu.inst     0.028949                       # mshr miss rate for overall accesses
system.cpu.icache.overall_mshr_miss_rate::total     0.028949                       # mshr miss rate for overall accesses
system.cpu.icache.demand_avg_mshr_miss_latency::.cpu.inst 13127.550337                       # average overall mshr miss latency
system.cpu.icache.demand_avg_mshr_miss_latency::total 13127.550337                       # average overall mshr miss latency
system.cpu.icache.overall_avg_mshr_miss_latency::.cpu.inst 13127.550337                       # average overall mshr miss latency
system.cpu.icache.overall_avg_mshr_miss_latency::total 13127.550337                       # average overall mshr miss latency
system.cpu.icache.replacements                  34062                       # number of replacements
system.cpu.icache.ReadReq_hits::.cpu.inst      1150427                       # number of ReadReq hits
system.cpu.icache.ReadReq_hits::total         1150427                       # number of ReadReq hits
system.cpu.icache.ReadReq_misses::.cpu.inst        35075                       # number of ReadReq misses
system.cpu.icache.ReadReq_misses::total         35075                       # number of ReadReq misses
system.cpu.icache.ReadReq_miss_latency::.cpu.inst    510968400                       # number of ReadReq miss cycles
system.cpu.icache.ReadReq_miss_latency::total    510968400                       # number of ReadReq miss cycles
system.cpu.icache.ReadReq_accesses::.cpu.inst      1185502                       # number of ReadReq accesses(hits+misses)
system.cpu.icache.ReadReq_accesses::total      1185502                       # number of ReadReq accesses(hits+misses)
system.cpu.icache.ReadReq_miss_rate::.cpu.inst     0.029587                       # miss rate for ReadReq accesses
system.cpu.icache.ReadReq_miss_rate::total     0.029587                       # miss rate for ReadReq accesses
system.cpu.icache.ReadReq_avg_miss_latency::.cpu.inst 14567.880257                       # average ReadReq miss latency
system.cpu.icache.ReadReq_avg_miss_latency::total 14567.880257                       # average ReadReq miss latency
system.cpu.icache.ReadReq_mshr_hits::.cpu.inst          756                       # number of ReadReq MSHR hits
system.cpu.icache.ReadReq_mshr_hits::total          756                       # number of ReadReq MSHR hits
system.cpu.icache.ReadReq_mshr_misses::.cpu.inst        34319                       # number of ReadReq MSHR misses
system.cpu.icache.ReadReq_mshr_misses::total        34319                       # number of ReadReq MSHR misses
system.cpu.icache.ReadReq_mshr_miss_latency::.cpu.inst    450524400                       # number of ReadReq MSHR miss cycles
system.cpu.icache.ReadReq_mshr_miss_latency::total    450524400                       # number of ReadReq MSHR miss cycles
system.cpu.icache.ReadReq_mshr_miss_rate::.cpu.inst     0.028949                       # mshr miss rate for ReadReq accesses
system.cpu.icache.ReadReq_mshr_miss_rate::total     0.028949                       # mshr miss rate for ReadReq accesses
system.cpu.icache.ReadReq_avg_mshr_miss_latency::.cpu.inst 13127.550337                       # average ReadReq mshr miss latency
system.cpu.icache.ReadReq_avg_mshr_miss_latency::total 13127.550337                       # average ReadReq mshr miss latency
system.cpu.icache.prefetcher.pwrStateResidencyTicks::UNDEFINED   3136146800                       # Cumulative time (in ticks) in various power states
system.cpu.icache.tags.pwrStateResidencyTicks::UNDEFINED   3136146800                       # Cumulative time (in ticks) in various power states
system.cpu.icache.tags.tagsinuse           255.112848                       # Cycle average of tags in use
system.cpu.icache.tags.total_refs              769324                       # Total number of references to valid blocks.
system.cpu.icache.tags.sampled_refs             34062                       # Sample count of references to valid blocks.
system.cpu.icache.tags.avg_refs             22.585990                       # Average number of references to valid blocks.
system.cpu.icache.tags.warmup_cycle             66400                       # Cycle when the warmup percentage was hit.
system.cpu.icache.tags.occ_blocks::.cpu.inst   255.112848                       # Average occupied blocks per requestor
system.cpu.icache.tags.occ_percent::.cpu.inst     0.996535                       # Average percentage of cache occupancy
system.cpu.icache.tags.occ_percent::total     0.996535                       # Average percentage of cache occupancy
system.cpu.icache.tags.occ_task_id_blocks::1024          256                       # Occupied blocks per task id
system.cpu.icache.tags.age_task_id_blocks_1024::0           95                       # Occupied blocks per task id
system.cpu.icache.tags.age_task_id_blocks_1024::1            4                       # Occupied blocks per task id
system.cpu.icache.tags.age_task_id_blocks_1024::3          157                       # Occupied blocks per task id
system.cpu.icache.tags.occ_task_id_percent::1024            1                       # Percentage of cache occupancy per task id
system.cpu.icache.tags.tag_accesses           2405322                       # Number of tag accesses
system.cpu.icache.tags.data_accesses          2405322                       # Number of data accesses
system.cpu.dtb.walker.pwrStateResidencyTicks::UNDEFINED   3136146800                       # Cumulative time (in ticks) in various power states
system.cpu.interrupts.clk_domain.clock           6400                       # Clock period in ticks
system.cpu.itb.walker.pwrStateResidencyTicks::UNDEFINED   3136146800                       # Cumulative time (in ticks) in various power states
system.cpu.dcache.pwrStateResidencyTicks::UNDEFINED   3136146800                       # Cumulative time (in ticks) in various power states
system.cpu.dcache.demand_hits::.cpu.data      2974234                       # number of demand (read+write) hits
system.cpu.dcache.demand_hits::total          2974234                       # number of demand (read+write) hits
system.cpu.dcache.overall_hits::.cpu.data      2974234                       # number of overall hits
system.cpu.dcache.overall_hits::total         2974234                       # number of overall hits
system.cpu.dcache.demand_misses::.cpu.data        36338                       # number of demand (read+write) misses
system.cpu.dcache.demand_misses::total          36338                       # number of demand (read+write) misses
system.cpu.dcache.overall_misses::.cpu.data        36338                       # number of overall misses
system.cpu.dcache.overall_misses::total         36338                       # number of overall misses
system.cpu.dcache.demand_miss_latency::.cpu.data   1743414800                       # number of demand (read+write) miss cycles
system.cpu.dcache.demand_miss_latency::total   1743414800                       # number of demand (read+write) miss cycles
system.cpu.dcache.overall_miss_latency::.cpu.data   1743414800                       # number of overall miss cycles
system.cpu.dcache.overall_miss_latency::total   1743414800                       # number of overall miss cycles
system.cpu.dcache.demand_accesses::.cpu.data      3010572                       # number of demand (read+write) accesses
system.cpu.dcache.demand_accesses::total      3010572                       # number of demand (read+write) accesses
system.cpu.dcache.overall_accesses::.cpu.data      3010572                       # number of overall (read+write) accesses
system.cpu.dcache.overall_accesses::total      3010572                       # number of overall (read+write) accesses
system.cpu.dcache.demand_miss_rate::.cpu.data     0.012070                       # miss rate for demand accesses
system.cpu.dcache.demand_miss_rate::total     0.012070                       # miss rate for demand accesses
system.cpu.dcache.overall_miss_rate::.cpu.data     0.012070                       # miss rate for overall accesses
system.cpu.dcache.overall_miss_rate::total     0.012070                       # miss rate for overall accesses
system.cpu.dcache.demand_avg_miss_latency::.cpu.data 47977.731301                       # average overall miss latency
system.cpu.dcache.demand_avg_miss_latency::total 47977.731301                       # average overall miss latency
system.cpu.dcache.overall_avg_miss_latency::.cpu.data 47977.731301                       # average overall miss latency
system.cpu.dcache.overall_avg_miss_latency::total 47977.731301                       # average overall miss latency
system.cpu.dcache.blocked_cycles::no_mshrs        30437                       # number of cycles access was blocked
system.cpu.dcache.blocked_cycles::no_targets          194                       # number of cycles access was blocked
system.cpu.dcache.blocked::no_mshrs               772                       # number of cycles access was blocked
system.cpu.dcache.blocked::no_targets               3                       # number of cycles access was blocked
system.cpu.dcache.avg_blocked_cycles::no_mshrs    39.426166                       # average number of cycles each access was blocked
system.cpu.dcache.avg_blocked_cycles::no_targets    64.666667                       # average number of cycles each access was blocked
system.cpu.dcache.unused_prefetches              2025                       # number of HardPF blocks evicted w/o reference
system.cpu.dcache.writebacks::.writebacks         3437                       # number of writebacks
system.cpu.dcache.writebacks::total              3437                       # number of writebacks
system.cpu.dcache.demand_mshr_hits::.cpu.data        22688                       # number of demand (read+write) MSHR hits
system.cpu.dcache.demand_mshr_hits::total        22688                       # number of demand (read+write) MSHR hits
system.cpu.dcache.overall_mshr_hits::.cpu.data        22688                       # number of overall MSHR hits
system.cpu.dcache.overall_mshr_hits::total        22688                       # number of overall MSHR hits
system.cpu.dcache.demand_mshr_misses::.cpu.data        13650                       # number of demand (read+write) MSHR misses
system.cpu.dcache.demand_mshr_misses::total        13650                       # number of demand (read+write) MSHR misses
system.cpu.dcache.overall_mshr_misses::.cpu.data        13650                       # number of overall MSHR misses
system.cpu.dcache.overall_mshr_misses::.cpu.dcache.prefetcher         4722                       # number of overall MSHR misses
system.cpu.dcache.overall_mshr_misses::total        18372                       # number of overall MSHR misses
system.cpu.dcache.demand_mshr_miss_latency::.cpu.data    626270000                       # number of demand (read+write) MSHR miss cycles
system.cpu.dcache.demand_mshr_miss_latency::total    626270000                       # number of demand (read+write) MSHR miss cycles
system.cpu.dcache.overall_mshr_miss_latency::.cpu.data    626270000                       # number of overall MSHR miss cycles
system.cpu.dcache.overall_mshr_miss_latency::.cpu.dcache.prefetcher    261830936                       # number of overall MSHR miss cycles
system.cpu.dcache.overall_mshr_miss_latency::total    888100936                       # number of overall MSHR miss cycles
system.cpu.dcache.demand_mshr_miss_rate::.cpu.data     0.004534                       # mshr miss rate for demand accesses
system.cpu.dcache.demand_mshr_miss_rate::total     0.004534                       # mshr miss rate for demand accesses
system.cpu.dcache.overall_mshr_miss_rate::.cpu.data     0.004534                       # mshr miss rate for overall accesses
system.cpu.dcache.overall_mshr_miss_rate::.cpu.dcache.prefetcher          inf                       # mshr miss rate for overall accesses
system.cpu.dcache.overall_mshr_miss_rate::total     0.006102                       # mshr miss rate for overall accesses
system.cpu.dcache.demand_avg_mshr_miss_latency::.cpu.data 45880.586081                       # average overall mshr miss latency
system.cpu.dcache.demand_avg_mshr_miss_latency::total 45880.586081                       # average overall mshr miss latency
system.cpu.dcache.overall_avg_mshr_miss_latency::.cpu.data 45880.586081                       # average overall mshr miss latency
system.cpu.dcache.overall_avg_mshr_miss_latency::.cpu.dcache.prefetcher 55449.160525                       # average overall mshr miss latency
system.cpu.dcache.overall_avg_mshr_miss_latency::total 48339.915959                       # average overall mshr miss latency
system.cpu.dcache.replacements                  17348                       # number of replacements
system.cpu.dcache.ReadReq_hits::.cpu.data      1937255                       # number of ReadReq hits
system.cpu.dcache.ReadReq_hits::total         1937255                       # number of ReadReq hits
system.cpu.dcache.ReadReq_misses::.cpu.data        33657                       # number of ReadReq misses
system.cpu.dcache.ReadReq_misses::total         33657                       # number of ReadReq misses
system.cpu.dcache.ReadReq_miss_latency::.cpu.data   1600707200                       # number of ReadReq miss cycles
system.cpu.dcache.ReadReq_miss_latency::total   1600707200                       # number of ReadReq miss cycles
system.cpu.dcache.ReadReq_accesses::.cpu.data      1970912                       # number of ReadReq accesses(hits+misses)
system.cpu.dcache.ReadReq_accesses::total      1970912                       # number of ReadReq accesses(hits+misses)
system.cpu.dcache.ReadReq_miss_rate::.cpu.data     0.017077                       # miss rate for ReadReq accesses
system.cpu.dcache.ReadReq_miss_rate::total     0.017077                       # miss rate for ReadReq accesses
system.cpu.dcache.ReadReq_avg_miss_latency::.cpu.data 47559.414089                       # average ReadReq miss latency
system.cpu.dcache.ReadReq_avg_miss_latency::total 47559.414089                       # average ReadReq miss latency
system.cpu.dcache.ReadReq_mshr_hits::.cpu.data        22636                       # number of ReadReq MSHR hits
system.cpu.dcache.ReadReq_mshr_hits::total        22636                       # number of ReadReq MSHR hits
system.cpu.dcache.ReadReq_mshr_misses::.cpu.data        11021                       # number of ReadReq MSHR misses
system.cpu.dcache.ReadReq_mshr_misses::total        11021                       # number of ReadReq MSHR misses
system.cpu.dcache.ReadReq_mshr_miss_latency::.cpu.data    487782000                       # number of ReadReq MSHR miss cycles
system.cpu.dcache.ReadReq_mshr_miss_latency::total    487782000                       # number of ReadReq MSHR miss cycles
system.cpu.dcache.ReadReq_mshr_miss_rate::.cpu.data     0.005592                       # mshr miss rate for ReadReq accesses
system.cpu.dcache.ReadReq_mshr_miss_rate::total     0.005592                       # mshr miss rate for ReadReq accesses
system.cpu.dcache.ReadReq_avg_mshr_miss_latency::.cpu.data 44259.323110                       # average ReadReq mshr miss latency
system.cpu.dcache.ReadReq_avg_mshr_miss_latency::total 44259.323110                       # average ReadReq mshr miss latency
system.cpu.dcache.WriteReq_hits::.cpu.data      1036979                       # number of WriteReq hits
system.cpu.dcache.WriteReq_hits::total        1036979                       # number of WriteReq hits
system.cpu.dcache.WriteReq_misses::.cpu.data         2681                       # number of WriteReq misses
system.cpu.dcache.WriteReq_misses::total         2681                       # number of WriteReq misses
system.cpu.dcache.WriteReq_miss_latency::.cpu.data    142707600                       # number of WriteReq miss cycles
system.cpu.dcache.WriteReq_miss_latency::total    142707600                       # number of WriteReq miss cycles
system.cpu.dcache.WriteReq_accesses::.cpu.data      1039660                       # number of WriteReq accesses(hits+misses)
system.cpu.dcache.WriteReq_accesses::total      1039660                       # number of WriteReq accesses(hits+misses)
system.cpu.dcache.WriteReq_miss_rate::.cpu.data     0.002579                       # miss rate for WriteReq accesses
system.cpu.dcache.WriteReq_miss_rate::total     0.002579                       # miss rate for WriteReq accesses
system.cpu.dcache.WriteReq_avg_miss_latency::.cpu.data 53229.242820                       # average WriteReq miss latency
system.cpu.dcache.WriteReq_avg_miss_latency::total 53229.242820                       # average WriteReq miss latency
system.cpu.dcache.WriteReq_mshr_hits::.cpu.data           52                       # number of WriteReq MSHR hits
system.cpu.dcache.WriteReq_mshr_hits::total           52                       # number of WriteReq MSHR hits
system.cpu.dcache.WriteReq_mshr_misses::.cpu.data         2629                       # number of WriteReq MSHR misses
[...]
system.l2cache.demand_mshr_misses::.cpu.data          139                       # number of demand (read+write) MSHR misses
system.l2cache.demand_mshr_misses::.cpu.dcache.prefetcher           21                       # number of demand (read+write) MSHR misses
system.l2cache.demand_mshr_misses::total          430                       # number of demand (read+write) MSHR misses
system.l2cache.overall_mshr_misses::.cpu.inst          270                       # number of overall MSHR misses
system.l2cache.overall_mshr_misses::.cpu.data          139                       # number of overall MSHR misses
system.l2cache.overall_mshr_misses::.cpu.dcache.prefetcher           21                       # number of overall MSHR misses
system.l2cache.overall_mshr_misses::total          430                       # number of overall MSHR misses
system.l2cache.demand_mshr_miss_latency::.cpu.inst     15989200                       # number of demand (read+write) MSHR miss cycles
system.l2cache.demand_mshr_miss_latency::.cpu.data      8316000                       # number of demand (read+write) MSHR miss cycles
system.l2cache.demand_mshr_miss_latency::.cpu.dcache.prefetcher      1306376                       # number of demand (read+write) MSHR miss cycles
system.l2cache.demand_mshr_miss_latency::total     25611576                       # number of demand (read+write) MSHR miss cycles
system.l2cache.overall_mshr_miss_latency::.cpu.inst     15989200                       # number of overall MSHR miss cycles
system.l2cache.overall_mshr_miss_latency::.cpu.data      8316000                       # number of overall MSHR miss cycles
system.l2cache.overall_mshr_miss_latency::.cpu.dcache.prefetcher      1306376                       # number of overall MSHR miss cycles
system.l2cache.overall_mshr_miss_latency::total     25611576                       # number of overall MSHR miss cycles
system.l2cache.demand_mshr_miss_rate::.cpu.inst     0.521236                       # mshr miss rate for demand accesses
system.l2cache.demand_mshr_miss_rate::.cpu.data     0.438486                       # mshr miss rate for demand accesses
system.l2cache.demand_mshr_miss_rate::.cpu.dcache.prefetcher     0.777778                       # mshr miss rate for demand accesses
system.l2cache.demand_mshr_miss_rate::total     0.498840                       # mshr miss rate for demand accesses
system.l2cache.overall_mshr_miss_rate::.cpu.inst     0.521236                       # mshr miss rate for overall accesses
system.l2cache.overall_mshr_miss_rate::.cpu.data     0.438486                       # mshr miss rate for overall accesses
system.l2cache.overall_mshr_miss_rate::.cpu.dcache.prefetcher     0.777778                       # mshr miss rate for overall accesses
system.l2cache.overall_mshr_miss_rate::total     0.498840                       # mshr miss rate for overall accesses
system.l2cache.demand_avg_mshr_miss_latency::.cpu.inst 59219.259259                       # average overall mshr miss latency
system.l2cache.demand_avg_mshr_miss_latency::.cpu.data 59827.338129                       # average overall mshr miss latency
system.l2cache.demand_avg_mshr_miss_latency::.cpu.dcache.prefetcher 62208.380952                       # average overall mshr miss latency
system.l2cache.demand_avg_mshr_miss_latency::total 59561.804651                       # average overall mshr miss latency
system.l2cache.overall_avg_mshr_miss_latency::.cpu.inst 59219.259259                       # average overall mshr miss latency
system.l2cache.overall_avg_mshr_miss_latency::.cpu.data 59827.338129                       # average overall mshr miss latency
system.l2cache.overall_avg_mshr_miss_latency::.cpu.dcache.prefetcher 62208.380952                       # average overall mshr miss latency
system.l2cache.overall_avg_mshr_miss_latency::total 59561.804651                       # average overall mshr miss latency
system.l2cache.replacements                       433                       # number of replacements
system.l2cache.WritebackDirty_hits::.writebacks          215                       # number of WritebackDirty hits
system.l2cache.WritebackDirty_hits::total          215                       # number of WritebackDirty hits
system.l2cache.WritebackDirty_accesses::.writebacks          215                       # number of WritebackDirty accesses(hits+misses)
system.l2cache.WritebackDirty_accesses::total          215                       # number of WritebackDirty accesses(hits+misses)
system.l2cache.CleanEvict_mshr_misses::.writebacks            8                       # number of CleanEvict MSHR misses
system.l2cache.CleanEvict_mshr_misses::total            8                       # number of CleanEvict MSHR misses
system.l2cache.CleanEvict_mshr_miss_rate::.writebacks          inf                       # mshr miss rate for CleanEvict accesses
system.l2cache.CleanEvict_mshr_miss_rate::total          inf                       # mshr miss rate for CleanEvict accesses
system.l2cache.ReadExReq_hits::.cpu.data           19                       # number of ReadExReq hits
system.l2cache.ReadExReq_hits::total               19                       # number of ReadExReq hits
system.l2cache.ReadExReq_misses::.cpu.data           36                       # number of ReadExReq misses
system.l2cache.ReadExReq_misses::total             36                       # number of ReadExReq misses
system.l2cache.ReadExReq_miss_latency::.cpu.data      2469600                       # number of ReadExReq miss cycles
system.l2cache.ReadExReq_miss_latency::total      2469600                       # number of ReadExReq miss cycles
system.l2cache.ReadExReq_accesses::.cpu.data           55                       # number of ReadExReq accesses(hits+misses)
system.l2cache.ReadExReq_accesses::total           55                       # number of ReadExReq accesses(hits+misses)
system.l2cache.ReadExReq_miss_rate::.cpu.data     0.654545                       # miss rate for ReadExReq accesses
system.l2cache.ReadExReq_miss_rate::total     0.654545                       # miss rate for ReadExReq accesses
system.l2cache.ReadExReq_avg_miss_latency::.cpu.data        68600                       # average ReadExReq miss latency
system.l2cache.ReadExReq_avg_miss_latency::total        68600                       # average ReadExReq miss latency
system.l2cache.ReadExReq_mshr_misses::.cpu.data           36                       # number of ReadExReq MSHR misses
system.l2cache.ReadExReq_mshr_misses::total           36                       # number of ReadExReq MSHR misses
system.l2cache.ReadExReq_mshr_miss_latency::.cpu.data      2181600                       # number of ReadExReq MSHR miss cycles
system.l2cache.ReadExReq_mshr_miss_latency::total      2181600                       # number of ReadExReq MSHR miss cycles
system.l2cache.ReadExReq_mshr_miss_rate::.cpu.data     0.654545                       # mshr miss rate for ReadExReq accesses
system.l2cache.ReadExReq_mshr_miss_rate::total     0.654545                       # mshr miss rate for ReadExReq accesses
system.l2cache.ReadExReq_avg_mshr_miss_latency::.cpu.data        60600                       # average ReadExReq mshr miss latency
system.l2cache.ReadExReq_avg_mshr_miss_latency::total        60600                       # average ReadExReq mshr miss latency
system.l2cache.ReadSharedReq_hits::.cpu.inst          248                       # number of ReadSharedReq hits
system.l2cache.ReadSharedReq_hits::.cpu.data          159                       # number of ReadSharedReq hits
system.l2cache.ReadSharedReq_hits::.cpu.dcache.prefetcher            6                       # number of ReadSharedReq hits
system.l2cache.ReadSharedReq_hits::total          413                       # number of ReadSharedReq hits
system.l2cache.ReadSharedReq_misses::.cpu.inst          270                       # number of ReadSharedReq misses
system.l2cache.ReadSharedReq_misses::.cpu.data          103                       # number of ReadSharedReq misses
system.l2cache.ReadSharedReq_misses::.cpu.dcache.prefetcher           21                       # number of ReadSharedReq misses
system.l2cache.ReadSharedReq_misses::total          394                       # number of ReadSharedReq misses
system.l2cache.ReadSharedReq_miss_latency::.cpu.inst     18141200                       # number of ReadSharedReq miss cycles
system.l2cache.ReadSharedReq_miss_latency::.cpu.data      6958400                       # number of ReadSharedReq miss cycles
system.l2cache.ReadSharedReq_miss_latency::.cpu.dcache.prefetcher      1474376                       # number of ReadSharedReq miss cycles
system.l2cache.ReadSharedReq_miss_latency::total     26573976                       # number of ReadSharedReq miss cycles
system.l2cache.ReadSharedReq_accesses::.cpu.inst          518                       # number of ReadSharedReq accesses(hits+misses)
system.l2cache.ReadSharedReq_accesses::.cpu.data          262                       # number of ReadSharedReq accesses(hits+misses)
system.l2cache.ReadSharedReq_accesses::.cpu.dcache.prefetcher           27                       # number of ReadSharedReq accesses(hits+misses)
system.l2cache.ReadSharedReq_accesses::total          807                       # number of ReadSharedReq accesses(hits+misses)
system.l2cache.ReadSharedReq_miss_rate::.cpu.inst     0.521236                       # miss rate for ReadSharedReq accesses
system.l2cache.ReadSharedReq_miss_rate::.cpu.data     0.393130                       # miss rate for ReadSharedReq accesses
system.l2cache.ReadSharedReq_miss_rate::.cpu.dcache.prefetcher     0.777778                       # miss rate for ReadSharedReq accesses
system.l2cache.ReadSharedReq_miss_rate::total     0.488228                       # miss rate for ReadSharedReq accesses
system.l2cache.ReadSharedReq_avg_miss_latency::.cpu.inst 67189.629630                       # average ReadSharedReq miss latency
system.l2cache.ReadSharedReq_avg_miss_latency::.cpu.data 67557.281553                       # average ReadSharedReq miss latency
system.l2cache.ReadSharedReq_avg_miss_latency::.cpu.dcache.prefetcher 70208.380952                       # average ReadSharedReq miss latency
system.l2cache.ReadSharedReq_avg_miss_latency::total 67446.639594                       # average ReadSharedReq miss latency
system.l2cache.ReadSharedReq_mshr_misses::.cpu.inst          270                       # number of ReadSharedReq MSHR misses
system.l2cache.ReadSharedReq_mshr_misses::.cpu.data          103                       # number of ReadSharedReq MSHR misses
system.l2cache.ReadSharedReq_mshr_misses::.cpu.dcache.prefetcher           21                       # number of ReadSharedReq MSHR misses
system.l2cache.ReadSharedReq_mshr_misses::total          394                       # number of ReadSharedReq MSHR misses
system.l2cache.ReadSharedReq_mshr_miss_latency::.cpu.inst     15989200                       # number of ReadSharedReq MSHR miss cycles
system.l2cache.ReadSharedReq_mshr_miss_latency::.cpu.data      6134400                       # number of ReadSharedReq MSHR miss cycles
system.l2cache.ReadSharedReq_mshr_miss_latency::.cpu.dcache.prefetcher      1306376                       # number of ReadSharedReq MSHR miss cycles
system.l2cache.ReadSharedReq_mshr_miss_latency::total     23429976                       # number of ReadSharedReq MSHR miss cycles
system.l2cache.ReadSharedReq_mshr_miss_rate::.cpu.inst     0.521236                       # mshr miss rate for ReadSharedReq accesses
system.l2cache.ReadSharedReq_mshr_miss_rate::.cpu.data     0.393130                       # mshr miss rate for ReadSharedReq accesses
system.l2cache.ReadSharedReq_mshr_miss_rate::.cpu.dcache.prefetcher     0.777778                       # mshr miss rate for ReadSharedReq accesses
system.l2cache.ReadSharedReq_mshr_miss_rate::total     0.488228                       # mshr miss rate for ReadSharedReq accesses
system.l2cache.ReadSharedReq_avg_mshr_miss_latency::.cpu.inst 59219.259259                       # average ReadSharedReq mshr miss latency
system.l2cache.ReadSharedReq_avg_mshr_miss_latency::.cpu.data 59557.281553                       # average ReadSharedReq mshr miss latency
system.l2cache.ReadSharedReq_avg_mshr_miss_latency::.cpu.dcache.prefetcher 62208.380952                       # average ReadSharedReq mshr miss latency
system.l2cache.ReadSharedReq_avg_mshr_miss_latency::total 59466.944162                       # average ReadSharedReq mshr miss latency
system.l2cache.prefetcher.pwrStateResidencyTicks::UNDEFINED     73507600                       # Cumulative time (in ticks) in various power states
system.l2cache.tags.pwrStateResidencyTicks::UNDEFINED     73507600                       # Cumulative time (in ticks) in various power states
system.l2cache.tags.tagsinuse                    4096                       # Cycle average of tags in use
system.l2cache.tags.total_refs                  77346                       # Total number of references to valid blocks.
system.l2cache.tags.sampled_refs                 4529                       # Sample count of references to valid blocks.
system.l2cache.tags.avg_refs                17.077942                       # Average number of references to valid blocks.
system.l2cache.tags.warmup_cycle                    0                       # Cycle when the warmup percentage was hit.
system.l2cache.tags.occ_blocks::.writebacks    43.244252                       # Average occupied blocks per requestor
system.l2cache.tags.occ_blocks::.cpu.inst  1062.927579                       # Average occupied blocks per requestor
system.l2cache.tags.occ_blocks::.cpu.data  2078.454114                       # Average occupied blocks per requestor
system.l2cache.tags.occ_blocks::.cpu.dcache.prefetcher   745.750528                       # Average occupied blocks per requestor
system.l2cache.tags.occ_blocks::.l2cache.prefetcher   165.623527                       # Average occupied blocks per requestor
system.l2cache.tags.occ_percent::.writebacks     0.010558                       # Average percentage of cache occupancy
system.l2cache.tags.occ_percent::.cpu.inst     0.259504                       # Average percentage of cache occupancy
system.l2cache.tags.occ_percent::.cpu.data     0.507435                       # Average percentage of cache occupancy
system.l2cache.tags.occ_percent::.cpu.dcache.prefetcher     0.182068                       # Average percentage of cache occupancy
system.l2cache.tags.occ_percent::.l2cache.prefetcher     0.040435                       # Average percentage of cache occupancy
system.l2cache.tags.occ_percent::total              1                       # Average percentage of cache occupancy
system.l2cache.tags.occ_task_id_blocks::1022          840                       # Occupied blocks per task id
system.l2cache.tags.occ_task_id_blocks::1024         3256                       # Occupied blocks per task id
system.l2cache.tags.age_task_id_blocks_1022::0           16                       # Occupied blocks per task id
system.l2cache.tags.age_task_id_blocks_1022::1            6                       # Occupied blocks per task id
system.l2cache.tags.age_task_id_blocks_1022::2            4                       # Occupied blocks per task id
system.l2cache.tags.age_task_id_blocks_1022::3          814                       # Occupied blocks per task id
system.l2cache.tags.age_task_id_blocks_1024::0          174                       # Occupied blocks per task id
system.l2cache.tags.age_task_id_blocks_1024::1          237                       # Occupied blocks per task id
system.l2cache.tags.age_task_id_blocks_1024::2           71                       # Occupied blocks per task id
system.l2cache.tags.age_task_id_blocks_1024::3         2774                       # Occupied blocks per task id
system.l2cache.tags.occ_task_id_percent::1022     0.205078                       # Percentage of cache occupancy per task id
system.l2cache.tags.occ_task_id_percent::1024     0.794922                       # Percentage of cache occupancy per task id
system.l2cache.tags.tag_accesses                14105                       # Number of tag accesses
system.l2cache.tags.data_accesses               14105                       # Number of data accesses
system.mem_ctrl.pwrStateResidencyTicks::UNDEFINED     73507600                       # Cumulative time (in ticks) in various power states
system.mem_ctrl.bytes_read::.cpu.inst           17216                       # Number of bytes read from this memory
system.mem_ctrl.bytes_read::.cpu.data            8896                       # Number of bytes read from this memory
system.mem_ctrl.bytes_read::.cpu.dcache.prefetcher         1344                       # Number of bytes read from this memory
system.mem_ctrl.bytes_read::total               27456                       # Number of bytes read from this memory
system.mem_ctrl.bytes_inst_read::.cpu.inst        17216                       # Number of instructions bytes read from this memory
system.mem_ctrl.bytes_inst_read::total          17216                       # Number of instructions bytes read from this memory
system.mem_ctrl.bytes_written::.writebacks         1600                       # Number of bytes written to this memory
system.mem_ctrl.bytes_written::total             1600                       # Number of bytes written to this memory
system.mem_ctrl.num_reads::.cpu.inst              269                       # Number of read requests responded to by this memory
system.mem_ctrl.num_reads::.cpu.data              139                       # Number of read requests responded to by this memory
system.mem_ctrl.num_reads::.cpu.dcache.prefetcher           21                       # Number of read requests responded to by this memory
system.mem_ctrl.num_reads::total                  429                       # Number of read requests responded to by this memory
system.mem_ctrl.num_writes::.writebacks            25                       # Number of write requests responded to by this memory
system.mem_ctrl.num_writes::total                  25                       # Number of write requests responded to by this memory
system.mem_ctrl.bw_read::.cpu.inst          234207075                       # Total read bandwidth from this memory (bytes/s)
system.mem_ctrl.bw_read::.cpu.data          121021500                       # Total read bandwidth from this memory (bytes/s)
system.mem_ctrl.bw_read::.cpu.dcache.prefetcher     18283824                       # Total read bandwidth from this memory (bytes/s)
system.mem_ctrl.bw_read::total              373512399                       # Total read bandwidth from this memory (bytes/s)
system.mem_ctrl.bw_inst_read::.cpu.inst     234207075                       # Instruction read bandwidth from this memory (bytes/s)
system.mem_ctrl.bw_inst_read::total         234207075                       # Instruction read bandwidth from this memory (bytes/s)
system.mem_ctrl.bw_write::.writebacks        21766457                       # Write bandwidth from this memory (bytes/s)
system.mem_ctrl.bw_write::total              21766457                       # Write bandwidth from this memory (bytes/s)
system.mem_ctrl.bw_total::.writebacks        21766457                       # Total bandwidth to/from this memory (bytes/s)
system.mem_ctrl.bw_total::.cpu.inst         234207075                       # Total bandwidth to/from this memory (bytes/s)
system.mem_ctrl.bw_total::.cpu.data         121021500                       # Total bandwidth to/from this memory (bytes/s)
system.mem_ctrl.bw_total::.cpu.dcache.prefetcher     18283824                       # Total bandwidth to/from this memory (bytes/s)
system.mem_ctrl.bw_total::total             395278856                       # Total bandwidth to/from this memory (bytes/s)

---------- End Simulation Statistics   ----------
