
---------- Begin Simulation Statistics ----------
final_tick                                 1074521200                       # Number of ticks from beginning of simulation (restored from checkpoints and never reset)
host_inst_rate                                 163291                       # Simulator instruction rate (inst/s)
host_mem_usage                                4402812                       # Number of bytes of host memory used
host_op_rate                                   283752                       # Simulator op (including micro ops) rate (op/s)
host_seconds                                    12.41                       # Real time elapsed on the host
host_tick_rate                               86568587                       # Simulator tick rate (ticks/s)
sim_freq                                 1000000000000                       # Frequency of simulated ticks
sim_insts                                     2026814                       # Number of instructions simulated
sim_ops                                       3522025                       # Number of ops (including micro ops) simulated
sim_seconds                                  0.001075                       # Number of seconds simulated
sim_ticks                                  1074521200                       # Number of ticks simulated
system.cpu.branchPred.BTBCorrect                    0                       # Number of correct BTB predictions (this stat may not work properly.
system.cpu.branchPred.BTBHitPct              0.000000                       # BTB Hit Percentage
system.cpu.branchPred.BTBHits                       0                       # Number of BTB hits
system.cpu.branchPred.BTBLookups               427308                       # Number of BTB lookups
system.cpu.branchPred.RASInCorrect                  9                       # Number of incorrect RAS predictions.
system.cpu.branchPred.condIncorrect             23947                       # Number of conditional branches incorrect
system.cpu.branchPred.condPredicted            457177                       # Number of conditional branches predicted
system.cpu.branchPred.indirectHits             233332                       # Number of indirect target hits.
system.cpu.branchPred.indirectLookups          427308                       # Number of indirect predictor lookups.
system.cpu.branchPred.indirectMisses           193976                       # Number of indirect misses.
system.cpu.branchPred.lookups                  482512                       # Number of BP lookups
system.cpu.branchPred.usedRAS                   10906                       # Number of times the RAS was used to get a target.
system.cpu.branchPredindirectMispredicted        12220                       # Number of mispredicted indirect branches.
system.cpu.cc_regfile_reads                   2332062                       # number of cc regfile reads
system.cpu.cc_regfile_writes                  1902167                       # number of cc regfile writes
system.cpu.commit.amos                              0                       # Number of atomic instructions committed
system.cpu.commit.branchMispredicts             24045                       # The number of times a branch was mispredicted
system.cpu.commit.branches                     339525                       # Number of branches committed
system.cpu.commit.bw_lim_events                586030                       # number cycles where commit BW limit reached
system.cpu.commit.commitNonSpecStalls             732                       # The number of times commit has been forced to stall to communicate backwards
system.cpu.commit.commitSquashedInsts          876293                       # The number of squashed insts skipped by commit
system.cpu.commit.committedInsts              2026814                       # Number of instructions committed
system.cpu.commit.committedOps                3522025                       # Number of ops (including micro ops) committed
system.cpu.commit.committed_per_cycle::samples      2296885                       # Number of insts commited each cycle
system.cpu.commit.committed_per_cycle::mean     1.533392                       # Number of insts commited each cycle
system.cpu.commit.committed_per_cycle::stdev     1.725745                       # Number of insts commited each cycle
system.cpu.commit.committed_per_cycle::underflows            0      0.00%      0.00% # Number of insts commited each cycle
system.cpu.commit.committed_per_cycle::0      1150543     50.09%     50.09% # Number of insts commited each cycle
system.cpu.commit.committed_per_cycle::1       168541      7.34%     57.43% # Number of insts commited each cycle
system.cpu.commit.committed_per_cycle::2       165949      7.22%     64.65% # Number of insts commited each cycle
system.cpu.commit.committed_per_cycle::3       225822      9.83%     74.49% # Number of insts commited each cycle
system.cpu.commit.committed_per_cycle::4       586030     25.51%    100.00% # Number of insts commited each cycle
system.cpu.commit.committed_per_cycle::overflows            0      0.00%    100.00% # Number of insts commited each cycle
system.cpu.commit.committed_per_cycle::min_value            0                       # Number of insts commited each cycle
system.cpu.commit.committed_per_cycle::max_value            4                       # Number of insts commited each cycle
system.cpu.commit.committed_per_cycle::total      2296885                       # Number of insts commited each cycle
system.cpu.commit.fp_insts                      73320                       # Number of committed floating point instructions.
system.cpu.commit.function_calls                 9078                       # Number of function calls committed.
system.cpu.commit.int_insts                   3467286                       # Number of committed integer instructions.
system.cpu.commit.loads                        484570                       # Number of loads committed
system.cpu.commit.membars                           1                       # Number of memory barriers committed
system.cpu.commit.op_class_0::No_OpClass        20303      0.58%      0.58% # Class of committed instruction
system.cpu.commit.op_class_0::IntAlu          2771845     78.70%     79.28% # Class of committed instruction
system.cpu.commit.op_class_0::IntMult              27      0.00%     79.28% # Class of committed instruction
system.cpu.commit.op_class_0::IntDiv            36675      1.04%     80.32% # Class of committed instruction
system.cpu.commit.op_class_0::FloatAdd           2895      0.08%     80.40% # Class of committed instruction
system.cpu.commit.op_class_0::FloatCmp              0      0.00%     80.40% # Class of committed instruction
system.cpu.commit.op_class_0::FloatCvt           1200      0.03%     80.44% # Class of committed instruction
system.cpu.commit.op_class_0::FloatMult             0      0.00%     80.44% # Class of committed instruction
system.cpu.commit.op_class_0::FloatMultAcc            0      0.00%     80.44% # Class of committed instruction
system.cpu.commit.op_class_0::FloatDiv              0      0.00%     80.44% # Class of committed instruction
system.cpu.commit.op_class_0::FloatMisc             0      0.00%     80.44% # Class of committed instruction
system.cpu.commit.op_class_0::FloatSqrt             0      0.00%     80.44% # Class of committed instruction
system.cpu.commit.op_class_0::SimdAdd            6210      0.18%     80.61% # Class of committed instruction
system.cpu.commit.op_class_0::SimdAddAcc            0      0.00%     80.61% # Class of committed instruction
system.cpu.commit.op_class_0::SimdAlu           11188      0.32%     80.93% # Class of committed instruction
system.cpu.commit.op_class_0::SimdCmp               0      0.00%     80.93% # Class of committed instruction
system.cpu.commit.op_class_0::SimdCvt           12102      0.34%     81.27% # Class of committed instruction
system.cpu.commit.op_class_0::SimdMisc           6511      0.18%     81.46% # Class of committed instruction
system.cpu.commit.op_class_0::SimdMult              0      0.00%     81.46% # Class of committed instruction
system.cpu.commit.op_class_0::SimdMultAcc            0      0.00%     81.46% # Class of committed instruction
system.cpu.commit.op_class_0::SimdShift          1200      0.03%     81.49% # Class of committed instruction
system.cpu.commit.op_class_0::SimdShiftAcc            0      0.00%     81.49% # Class of committed instruction
system.cpu.commit.op_class_0::SimdDiv               0      0.00%     81.49% # Class of committed instruction
system.cpu.commit.op_class_0::SimdSqrt              0      0.00%     81.49% # Class of committed instruction
system.cpu.commit.op_class_0::SimdFloatAdd            0      0.00%     81.49% # Class of committed instruction
system.cpu.commit.op_class_0::SimdFloatAlu            0      0.00%     81.49% # Class of committed instruction
system.cpu.commit.op_class_0::SimdFloatCmp            0      0.00%     81.49% # Class of committed instruction
system.cpu.commit.op_class_0::SimdFloatCvt            0      0.00%     81.49% # Class of committed instruction
system.cpu.commit.op_class_0::SimdFloatDiv            0      0.00%     81.49% # Class of committed instruction
system.cpu.commit.op_class_0::SimdFloatMisc            0      0.00%     81.49% # Class of committed instruction
system.cpu.commit.op_class_0::SimdFloatMult            0      0.00%     81.49% # Class of committed instruction
system.cpu.commit.op_class_0::SimdFloatMultAcc            0      0.00%     81.49% # Class of committed instruction
system.cpu.commit.op_class_0::SimdFloatSqrt            0      0.00%     81.49% # Class of committed instruction
system.cpu.commit.op_class_0::SimdReduceAdd            0      0.00%     81.49% # Class of committed instruction
system.cpu.commit.op_class_0::SimdReduceAlu            0      0.00%     81.49% # Class of committed instruction
system.cpu.commit.op_class_0::SimdReduceCmp            0      0.00%     81.49% # Class of committed instruction
system.cpu.commit.op_class_0::SimdFloatReduceAdd            0      0.00%     81.49% # Class of committed instruction
system.cpu.commit.op_class_0::SimdFloatReduceCmp            0      0.00%     81.49% # Class of committed instruction
system.cpu.commit.op_class_0::SimdAes               0      0.00%     81.49% # Class of committed instruction
system.cpu.commit.op_class_0::SimdAesMix            0      0.00%     81.49% # Class of committed instruction
system.cpu.commit.op_class_0::SimdSha1Hash            0      0.00%     81.49% # Class of committed instruction
system.cpu.commit.op_class_0::SimdSha1Hash2            0      0.00%     81.49% # Class of committed instruction
system.cpu.commit.op_class_0::SimdSha256Hash            0      0.00%     81.49% # Class of committed instruction
system.cpu.commit.op_class_0::SimdSha256Hash2            0      0.00%     81.49% # Class of committed instruction
system.cpu.commit.op_class_0::SimdShaSigma2            0      0.00%     81.49% # Class of committed instruction
system.cpu.commit.op_class_0::SimdShaSigma3            0      0.00%     81.49% # Class of committed instruction
system.cpu.commit.op_class_0::SimdPredAlu            0      0.00%     81.49% # Class of committed instruction
system.cpu.commit.op_class_0::MemRead          465462     13.22%     94.71% # Class of committed instruction
system.cpu.commit.op_class_0::MemWrite         155230      4.41%     99.11% # Class of committed instruction
system.cpu.commit.op_class_0::FloatMemRead        19108      0.54%     99.66% # Class of committed instruction
system.cpu.commit.op_class_0::FloatMemWrite        12069      0.34%    100.00% # Class of committed instruction
system.cpu.commit.op_class_0::IprAccess             0      0.00%    100.00% # Class of committed instruction
system.cpu.commit.op_class_0::InstPrefetch            0      0.00%    100.00% # Class of committed instruction
system.cpu.commit.op_class_0::total           3522025                       # Class of committed instruction
system.cpu.commit.refs                         651869                       # Number of memory references committed
system.cpu.commit.swp_count                         0                       # Number of s/w prefetches committed
system.cpu.commit.vec_insts                         0                       # Number of committed Vector instructions.
system.cpu.committedInsts                     2026814                       # Number of Instructions Simulated
system.cpu.committedOps                       3522025                       # Number of Ops (including micro ops) Simulated
system.cpu.cpi                               1.325383                       # CPI: Cycles Per Instruction
system.cpu.cpi_total                         1.325383                       # CPI: Total CPI of All Threads
system.cpu.dcache.prefetcher.num_hwpf_issued         8016                       # number of hwpf issued
system.cpu.dcache.prefetcher.pfBufferHit        34397                       # number of redundant prefetches already in prefetch queue
system.cpu.dcache.prefetcher.pfIdentified        49464                       # number of prefetch candidates identified
system.cpu.dcache.prefetcher.pfInCache              0                       # number of redundant prefetches already in cache/mshr dropped
system.cpu.dcache.prefetcher.pfRemovedFull            0                       # number of prefetches dropped due to prefetch queue size
system.cpu.dcache.prefetcher.pfSpanPage          4616                       # number of prefetches that crossed the page
system.cpu.decode.BlockedCycles               1018193                       # Number of cycles decode is blocked
system.cpu.decode.DecodedInsts                4611655                       # Number of instructions handled by decode
system.cpu.decode.IdleCycles                   287334                       # Number of cycles decode is idle
system.cpu.decode.RunCycles                   1121019                       # Number of cycles decode is running
system.cpu.decode.SquashCycles                  24099                       # Number of cycles decode is squashing
system.cpu.decode.UnblockCycles                 85777                       # Number of cycles decode is unblocking
system.cpu.dtb.rdAccesses                      567243                       # TLB accesses on read requests
system.cpu.dtb.rdMisses                          2093                       # TLB misses on read requests
system.cpu.dtb.wrAccesses                      186281                       # TLB accesses on write requests
system.cpu.dtb.wrMisses                           171                       # TLB misses on write requests
system.cpu.fetch.Branches                      482512                       # Number of branches that fetch encountered
system.cpu.fetch.CacheLines                    234527                       # Number of cache lines fetched
system.cpu.fetch.Cycles                       2189406                       # Number of cycles fetch has run and was not squashing or blocked
system.cpu.fetch.IcacheSquashes                  4467                       # Number of outstanding Icache misses that were squashed
system.cpu.fetch.Insts                        2788757                       # Number of instructions fetch has processed
system.cpu.fetch.MiscStallCycles                  139                       # Number of cycles fetch has spent waiting on interrupts, or bad addresses, or out of MSHRs
system.cpu.fetch.PendingQuiesceStallCycles           19                       # Number of stall cycles due to pending quiesce instructions
system.cpu.fetch.PendingTrapStallCycles           696                       # Number of stall cycles due to pending traps
system.cpu.fetch.SquashCycles                   48198                       # Number of cycles fetch has spent squashing
system.cpu.fetch.branchRate                  0.179619                       # Number of branch fetches per cycle
system.cpu.fetch.icacheStallCycles             322063                       # Number of cycles fetch is stalled on an Icache miss
system.cpu.fetch.predictedBranches             244238                       # Number of branches that fetch has predicted taken
system.cpu.fetch.rate                        1.038139                       # Number of inst fetches per cycle
system.cpu.fetch.rateDist::samples            2536422                       # Number of instructions fetched each cycle (Total)
system.cpu.fetch.rateDist::mean              1.926904                       # Number of instructions fetched each cycle (Total)
system.cpu.fetch.rateDist::stdev             1.931767                       # Number of instructions fetched each cycle (Total)
system.cpu.fetch.rateDist::underflows               0      0.00%      0.00% # Number of instructions fetched each cycle (Total)
system.cpu.fetch.rateDist::0                  1213759     47.85%     47.85% # Number of instructions fetched each cycle (Total)
system.cpu.fetch.rateDist::1                    71363      2.81%     50.67% # Number of instructions fetched each cycle (Total)
system.cpu.fetch.rateDist::2                    57273      2.26%     52.92% # Number of instructions fetched each cycle (Total)
system.cpu.fetch.rateDist::3                    74576      2.94%     55.86% # Number of instructions fetched each cycle (Total)
system.cpu.fetch.rateDist::4                  1119451     44.14%    100.00% # Number of instructions fetched each cycle (Total)
system.cpu.fetch.rateDist::overflows                0      0.00%    100.00% # Number of instructions fetched each cycle (Total)
system.cpu.fetch.rateDist::min_value                0                       # Number of instructions fetched each cycle (Total)
system.cpu.fetch.rateDist::max_value                4                       # Number of instructions fetched each cycle (Total)
system.cpu.fetch.rateDist::total              2536422                       # Number of instructions fetched each cycle (Total)
system.cpu.fp_regfile_reads                    120576                       # number of floating regfile reads
system.cpu.fp_regfile_writes                    66330                       # number of floating regfile writes
system.cpu.fuPool.fu_ticks_busy::IntALU(0)    213153200                       # Total ticks fu was busy
system.cpu.fuPool.fu_ticks_busy::IntALU(1)    213153200                       # Total ticks fu was busy
system.cpu.fuPool.fu_ticks_busy::IntALU(2)    213153200                       # Total ticks fu was busy
system.cpu.fuPool.fu_ticks_busy::IntALU(3)    213152800                       # Total ticks fu was busy
system.cpu.fuPool.fu_ticks_busy::IntALU(4)    213152800                       # Total ticks fu was busy
system.cpu.fuPool.fu_ticks_busy::IntALU(5)    213152800                       # Total ticks fu was busy
system.cpu.fuPool.fu_ticks_busy::IntMultDiv(0)      8107200                       # Total ticks fu was busy
system.cpu.fuPool.fu_ticks_busy::IntMultDiv(1)      8106800                       # Total ticks fu was busy
system.cpu.fuPool.fu_ticks_busy::FP_ALU(0)       571600                       # Total ticks fu was busy
system.cpu.fuPool.fu_ticks_busy::FP_ALU(1)       571200                       # Total ticks fu was busy
system.cpu.fuPool.fu_ticks_busy::FP_ALU(2)       571200                       # Total ticks fu was busy
system.cpu.fuPool.fu_ticks_busy::FP_ALU(3)       571200                       # Total ticks fu was busy
system.cpu.fuPool.fu_ticks_busy::FP_MultDiv(0)            0                       # Total ticks fu was busy
system.cpu.fuPool.fu_ticks_busy::FP_MultDiv(1)            0                       # Total ticks fu was busy
system.cpu.fuPool.fu_ticks_busy::SIMD_Unit(0)      4599600                       # Total ticks fu was busy
system.cpu.fuPool.fu_ticks_busy::SIMD_Unit(1)      4424000                       # Total ticks fu was busy
system.cpu.fuPool.fu_ticks_busy::SIMD_Unit(2)      4462000                       # Total ticks fu was busy
system.cpu.fuPool.fu_ticks_busy::SIMD_Unit(3)      4626800                       # Total ticks fu was busy
system.cpu.fuPool.fu_ticks_busy::PredALU(0)            0                       # Total ticks fu was busy
system.cpu.fuPool.fu_ticks_busy::RdWrPort(0)     76811200                       # Total ticks fu was busy
system.cpu.fuPool.fu_ticks_busy::RdWrPort(1)     76819200                       # Total ticks fu was busy
system.cpu.fuPool.fu_ticks_busy::RdWrPort(2)     76856000                       # Total ticks fu was busy
system.cpu.fuPool.fu_ticks_busy::RdWrPort(3)     76770000                       # Total ticks fu was busy
system.cpu.fuPool.fu_ticks_busy::IprPort(0)            0                       # Total ticks fu was busy
system.cpu.fuPool.fu_ticks_busy::total     1622786000                       # Total ticks fu was busy
system.cpu.icache.prefetcher.num_hwpf_issued            0                       # number of hwpf issued
system.cpu.icache.prefetcher.pfBufferHit            0                       # number of redundant prefetches already in prefetch queue
system.cpu.icache.prefetcher.pfIdentified            0                       # number of prefetch candidates identified
system.cpu.icache.prefetcher.pfInCache              0                       # number of redundant prefetches already in cache/mshr dropped
system.cpu.icache.prefetcher.pfRemovedFull            0                       # number of prefetches dropped due to prefetch queue size
system.cpu.icache.prefetcher.pfSpanPage             0                       # number of prefetches that crossed the page
system.cpu.idleCycles                          149882                       # Total number of cycles that the CPU has spent unscheduled due to idling
system.cpu.iew.branchMispredicts                28579                       # Number of branch mispredicts detected at execute
system.cpu.iew.exec_branches                   369663                       # Number of branches executed
system.cpu.iew.exec_nop                             0                       # number of nop insts executed
system.cpu.iew.exec_rate                     1.507471                       # Inst execution rate
system.cpu.iew.exec_refs                       755224                       # number of memory reference insts executed
system.cpu.iew.exec_stores                     186274                       # Number of stores executed
system.cpu.iew.exec_swp                             0                       # number of swp insts executed
system.cpu.iew.iewBlockCycles                  696243                       # Number of cycles IEW is blocking
system.cpu.iew.iewDispLoadInsts                599118                       # Number of dispatched load instructions
system.cpu.iew.iewDispNonSpecInsts                923                       # Number of dispatched non-speculative instructions
system.cpu.iew.iewDispSquashedInsts               548                       # Number of squashed instructions skipped by dispatch
system.cpu.iew.iewDispStoreInsts               196284                       # Number of dispatched store instructions
system.cpu.iew.iewDispatchedInsts             4398263                       # Number of instructions dispatched to IQ
system.cpu.iew.iewExecLoadInsts                568950                       # Number of load instructions executed
system.cpu.iew.iewExecSquashedInsts             33932                       # Number of squashed instructions skipped in execute
system.cpu.iew.iewExecutedInsts               4049525                       # Number of executed instructions
system.cpu.iew.iewIQFullEvents                   3264                       # Number of times the IQ has become full, causing a stall
system.cpu.iew.iewIdleCycles                        0                       # Number of cycles IEW is idle
system.cpu.iew.iewLSQFullEvents                  8252                       # Number of times the LSQ has become full, causing a stall
system.cpu.iew.iewSquashCycles                  24099                       # Number of cycles IEW is squashing
system.cpu.iew.iewUnblockCycles                 14462                       # Number of cycles IEW is unblocking
system.cpu.iew.lsq.thread0.blockedLoads             0                       # Number of blocked loads due to partial load-store forwarding
system.cpu.iew.lsq.thread0.cacheBlocked           620                       # Number of times an access to memory failed due to the cache being blocked
system.cpu.iew.lsq.thread0.forwLoads            39024                       # Number of loads that had data forwarded from stores
system.cpu.iew.lsq.thread0.ignoredResponses          261                       # Number of memory responses ignored because the instruction is squashed
system.cpu.iew.lsq.thread0.invAddrLoads             0                       # Number of loads ignored due to an invalid address
system.cpu.iew.lsq.thread0.invAddrSwpfs             0                       # Number of software prefetches ignored due to an invalid address
system.cpu.iew.lsq.thread0.memOrderViolation           69                       # Number of memory ordering violations
system.cpu.iew.lsq.thread0.rescheduledLoads            0                       # Number of loads that were rescheduled
system.cpu.iew.lsq.thread0.squashedLoads       114546                       # Number of loads squashed
system.cpu.iew.lsq.thread0.squashedStores        28984                       # Number of stores squashed
system.cpu.iew.memOrderViolationEvents             69                       # Number of memory order violations
system.cpu.iew.predictedNotTakenIncorrect        20553                       # Number of branches that were predicted not taken incorrectly
system.cpu.iew.predictedTakenIncorrect           8026                       # Number of branches that were predicted taken incorrectly
system.cpu.iew.wb_consumers                   5681397                       # num instructions consuming a value
system.cpu.iew.wb_count                       4027723                       # cumulative count of insts written-back
system.cpu.iew.wb_fanout                     0.567012                       # average fanout of values written-back
system.cpu.iew.wb_producers                   3221418                       # num instructions producing a value
system.cpu.iew.wb_rate                       1.499355                       # insts written-back per cycle
system.cpu.iew.wb_sent                        4034666                       # cumulative count of insts sent to commit
system.cpu.int_regfile_reads                  6268751                       # number of integer regfile reads
system.cpu.int_regfile_writes                 3478047                       # number of integer regfile writes
system.cpu.ipc                               0.754499                       # IPC: Instructions Per Cycle
system.cpu.ipc_total                         0.754499                       # IPC: Total IPC of All Threads
system.cpu.iq.FU_type_0::No_OpClass             26492      0.65%      0.65% # Type of FU issued
system.cpu.iq.FU_type_0::IntAlu               3197296     78.30%     78.95% # Type of FU issued
system.cpu.iq.FU_type_0::IntMult                   53      0.00%     78.95% # Type of FU issued
system.cpu.iq.FU_type_0::IntDiv                 40482      0.99%     79.94% # Type of FU issued
system.cpu.iq.FU_type_0::FloatAdd                4485      0.11%     80.05% # Type of FU issued
system.cpu.iq.FU_type_0::FloatCmp                   0      0.00%     80.05% # Type of FU issued
system.cpu.iq.FU_type_0::FloatCvt                1228      0.03%     80.08% # Type of FU issued
system.cpu.iq.FU_type_0::FloatMult                  0      0.00%     80.08% # Type of FU issued
system.cpu.iq.FU_type_0::FloatMultAcc               0      0.00%     80.08% # Type of FU issued
system.cpu.iq.FU_type_0::FloatDiv                   0      0.00%     80.08% # Type of FU issued
system.cpu.iq.FU_type_0::FloatMisc                  0      0.00%     80.08% # Type of FU issued
system.cpu.iq.FU_type_0::FloatSqrt                  0      0.00%     80.08% # Type of FU issued
system.cpu.iq.FU_type_0::SimdAdd                 6876      0.17%     80.25% # Type of FU issued
system.cpu.iq.FU_type_0::SimdAddAcc                 0      0.00%     80.25% # Type of FU issued
system.cpu.iq.FU_type_0::SimdAlu                15123      0.37%     80.62% # Type of FU issued
system.cpu.iq.FU_type_0::SimdCmp                    0      0.00%     80.62% # Type of FU issued
system.cpu.iq.FU_type_0::SimdCvt                13901      0.34%     80.96% # Type of FU issued
system.cpu.iq.FU_type_0::SimdMisc                7125      0.17%     81.13% # Type of FU issued
system.cpu.iq.FU_type_0::SimdMult                   0      0.00%     81.13% # Type of FU issued
system.cpu.iq.FU_type_0::SimdMultAcc                0      0.00%     81.13% # Type of FU issued
system.cpu.iq.FU_type_0::SimdShift               2256      0.06%     81.19% # Type of FU issued
system.cpu.iq.FU_type_0::SimdShiftAcc               0      0.00%     81.19% # Type of FU issued
system.cpu.iq.FU_type_0::SimdDiv                    0      0.00%     81.19% # Type of FU issued
system.cpu.iq.FU_type_0::SimdSqrt                   0      0.00%     81.19% # Type of FU issued
system.cpu.iq.FU_type_0::SimdFloatAdd               0      0.00%     81.19% # Type of FU issued
system.cpu.iq.FU_type_0::SimdFloatAlu               0      0.00%     81.19% # Type of FU issued
system.cpu.iq.FU_type_0::SimdFloatCmp               0      0.00%     81.19% # Type of FU issued
system.cpu.iq.FU_type_0::SimdFloatCvt               0      0.00%     81.19% # Type of FU issued
system.cpu.iq.FU_type_0::SimdFloatDiv               0      0.00%     81.19% # Type of FU issued
system.cpu.iq.FU_type_0::SimdFloatMisc              0      0.00%     81.19% # Type of FU issued
system.cpu.iq.FU_type_0::SimdFloatMult              0      0.00%     81.19% # Type of FU issued
system.cpu.iq.FU_type_0::SimdFloatMultAcc            0      0.00%     81.19% # Type of FU issued
system.cpu.iq.FU_type_0::SimdFloatSqrt              0      0.00%     81.19% # Type of FU issued
system.cpu.iq.FU_type_0::SimdReduceAdd              0      0.00%     81.19% # Type of FU issued
system.cpu.iq.FU_type_0::SimdReduceAlu              0      0.00%     81.19% # Type of FU issued
system.cpu.iq.FU_type_0::SimdReduceCmp              0      0.00%     81.19% # Type of FU issued
system.cpu.iq.FU_type_0::SimdFloatReduceAdd            0      0.00%     81.19% # Type of FU issued
system.cpu.iq.FU_type_0::SimdFloatReduceCmp            0      0.00%     81.19% # Type of FU issued
system.cpu.iq.FU_type_0::SimdAes                    0      0.00%     81.19% # Type of FU issued
system.cpu.iq.FU_type_0::SimdAesMix                 0      0.00%     81.19% # Type of FU issued
system.cpu.iq.FU_type_0::SimdSha1Hash               0      0.00%     81.19% # Type of FU issued
system.cpu.iq.FU_type_0::SimdSha1Hash2              0      0.00%     81.19% # Type of FU issued
system.cpu.iq.FU_type_0::SimdSha256Hash             0      0.00%     81.19% # Type of FU issued
system.cpu.iq.FU_type_0::SimdSha256Hash2            0      0.00%     81.19% # Type of FU issued
system.cpu.iq.FU_type_0::SimdShaSigma2              0      0.00%     81.19% # Type of FU issued
system.cpu.iq.FU_type_0::SimdShaSigma3              0      0.00%     81.19% # Type of FU issued
system.cpu.iq.FU_type_0::SimdPredAlu                0      0.00%     81.19% # Type of FU issued
system.cpu.iq.FU_type_0::MemRead               554217     13.57%     94.76% # Type of FU issued
system.cpu.iq.FU_type_0::MemWrite              175332      4.29%     99.05% # Type of FU issued
system.cpu.iq.FU_type_0::FloatMemRead           25138      0.62%     99.67% # Type of FU issued
system.cpu.iq.FU_type_0::FloatMemWrite          13456      0.33%    100.00% # Type of FU issued
system.cpu.iq.FU_type_0::IprAccess                  0      0.00%    100.00% # Type of FU issued
system.cpu.iq.FU_type_0::InstPrefetch               0      0.00%    100.00% # Type of FU issued
system.cpu.iq.FU_type_0::total                4083460                       # Type of FU issued
system.cpu.iq.fp_alu_accesses                   90579                       # Number of floating point alu accesses
system.cpu.iq.fp_inst_queue_reads              182511                       # Number of floating instruction queue reads
system.cpu.iq.fp_inst_queue_wakeup_accesses        87076                       # Number of floating instruction queue wakeup accesses
system.cpu.iq.fp_inst_queue_writes             132400                       # Number of floating instruction queue writes
system.cpu.iq.fu_busy_cnt                           0                       # FU busy when requested
system.cpu.iq.fu_busy_rate                          0                       # FU busy rate (busy events/executed inst)
system.cpu.iq.fu_full::No_OpClass                   0                       # attempts to use FU when none available
system.cpu.iq.fu_full::IntAlu                       0                       # attempts to use FU when none available
system.cpu.iq.fu_full::IntMult                      0                       # attempts to use FU when none available
system.cpu.iq.fu_full::IntDiv                       0                       # attempts to use FU when none available
system.cpu.iq.fu_full::FloatAdd                     0                       # attempts to use FU when none available
system.cpu.iq.fu_full::FloatCmp                     0                       # attempts to use FU when none available
system.cpu.iq.fu_full::FloatCvt                     0                       # attempts to use FU when none available
system.cpu.iq.fu_full::FloatMult                    0                       # attempts to use FU when none available
system.cpu.iq.fu_full::FloatMultAcc                 0                       # attempts to use FU when none available
system.cpu.iq.fu_full::FloatDiv                     0                       # attempts to use FU when none available
system.cpu.iq.fu_full::FloatMisc                    0                       # attempts to use FU when none available
system.cpu.iq.fu_full::FloatSqrt                    0                       # attempts to use FU when none available
system.cpu.iq.fu_full::SimdAdd                      0                       # attempts to use FU when none available
system.cpu.iq.fu_full::SimdAddAcc                   0                       # attempts to use FU when none available
system.cpu.iq.fu_full::SimdAlu                      0                       # attempts to use FU when none available
system.cpu.iq.fu_full::SimdCmp                      0                       # attempts to use FU when none available
system.cpu.iq.fu_full::SimdCvt                      0                       # attempts to use FU when none available
system.cpu.iq.fu_full::SimdMisc                     0                       # attempts to use FU when none available
system.cpu.iq.fu_full::SimdMult                     0                       # attempts to use FU when none available
system.cpu.iq.fu_full::SimdMultAcc                  0                       # attempts to use FU when none available
system.cpu.iq.fu_full::SimdShift                    0                       # attempts to use FU when none available
system.cpu.iq.fu_full::SimdShiftAcc                 0                       # attempts to use FU when none available
system.cpu.iq.fu_full::SimdDiv                      0                       # attempts to use FU when none available
system.cpu.iq.fu_full::SimdSqrt                     0                       # attempts to use FU when none available
system.cpu.iq.fu_full::SimdFloatAdd                 0                       # attempts to use FU when none available
system.cpu.iq.fu_full::SimdFloatAlu                 0                       # attempts to use FU when none available
system.cpu.iq.fu_full::SimdFloatCmp                 0                       # attempts to use FU when none available
system.cpu.iq.fu_full::SimdFloatCvt                 0                       # attempts to use FU when none available
system.cpu.iq.fu_full::SimdFloatDiv                 0                       # attempts to use FU when none available
system.cpu.iq.fu_full::SimdFloatMisc                0                       # attempts to use FU when none available
system.cpu.iq.fu_full::SimdFloatMult                0                       # attempts to use FU when none available
system.cpu.iq.fu_full::SimdFloatMultAcc             0                       # attempts to use FU when none available
system.cpu.iq.fu_full::SimdFloatSqrt                0                       # attempts to use FU when none available
system.cpu.iq.fu_full::SimdReduceAdd                0                       # attempts to use FU when none available
system.cpu.iq.fu_full::SimdReduceAlu                0                       # attempts to use FU when none available
system.cpu.iq.fu_full::SimdReduceCmp                0                       # attempts to use FU when none available
system.cpu.iq.fu_full::SimdFloatReduceAdd            0                       # attempts to use FU when none available
system.cpu.iq.fu_full::SimdFloatReduceCmp            0                       # attempts to use FU when none available
system.cpu.iq.fu_full::SimdAes                      0                       # attempts to use FU when none available
system.cpu.iq.fu_full::SimdAesMix                   0                       # attempts to use FU when none available
system.cpu.iq.fu_full::SimdSha1Hash                 0                       # attempts to use FU when none available
system.cpu.iq.fu_full::SimdSha1Hash2                0                       # attempts to use FU when none available
system.cpu.iq.fu_full::SimdSha256Hash               0                       # attempts to use FU when none available
system.cpu.iq.fu_full::SimdSha256Hash2              0                       # attempts to use FU when none available
system.cpu.iq.fu_full::SimdShaSigma2                0                       # attempts to use FU when none available
system.cpu.iq.fu_full::SimdShaSigma3                0                       # attempts to use FU when none available
system.cpu.iq.fu_full::SimdPredAlu                  0                       # attempts to use FU when none available
system.cpu.iq.fu_full::MemRead                      0                       # attempts to use FU when none available
system.cpu.iq.fu_full::MemWrite                     0                       # attempts to use FU when none available
system.cpu.iq.fu_full::FloatMemRead                 0                       # attempts to use FU when none available
system.cpu.iq.fu_full::FloatMemWrite                0                       # attempts to use FU when none available
system.cpu.iq.fu_full::IprAccess                    0                       # attempts to use FU when none available
system.cpu.iq.fu_full::InstPrefetch                 0                       # attempts to use FU when none available
system.cpu.iq.int_alu_accesses                3966389                       # Number of integer alu accesses
system.cpu.iq.int_inst_queue_reads           10539419                       # Number of integer instruction queue reads
system.cpu.iq.int_inst_queue_wakeup_accesses      3940647                       # Number of integer instruction queue wakeup accesses
system.cpu.iq.int_inst_queue_writes           5142158                       # Number of integer instruction queue writes
system.cpu.iq.iqInstsAdded                    4397149                       # Number of instructions added to the IQ (excludes non-spec)
system.cpu.iq.iqInstsIssued                   4083460                       # Number of instructions issued
system.cpu.iq.iqNonSpecInstsAdded                1114                       # Number of non-speculative instructions added to the IQ
system.cpu.iq.iqSquashedInstsExamined          876227                       # Number of squashed instructions iterated over during squash; mainly for profiling
system.cpu.iq.iqSquashedInstsIssued             18591                       # Number of squashed instructions issued
system.cpu.iq.iqSquashedNonSpecRemoved            382                       # Number of squashed non-spec instructions that were removed
system.cpu.iq.iqSquashedOperandsExamined      1298471                       # Number of squashed operands that are examined and possibly removed from graph
system.cpu.iq.issued_per_cycle::samples       2536422                       # Number of insts issued each cycle
system.cpu.iq.issued_per_cycle::mean         1.609929                       # Number of insts issued each cycle
system.cpu.iq.issued_per_cycle::stdev        1.672378                       # Number of insts issued each cycle
system.cpu.iq.issued_per_cycle::underflows            0      0.00%      0.00% # Number of insts issued each cycle
system.cpu.iq.issued_per_cycle::0             1161540     45.79%     45.79% # Number of insts issued each cycle
system.cpu.iq.issued_per_cycle::1              166172      6.55%     52.35% # Number of insts issued each cycle
system.cpu.iq.issued_per_cycle::2              292700     11.54%     63.89% # Number of insts issued each cycle
system.cpu.iq.issued_per_cycle::3              332152     13.10%     76.98% # Number of insts issued each cycle
system.cpu.iq.issued_per_cycle::4              583858     23.02%    100.00% # Number of insts issued each cycle
system.cpu.iq.issued_per_cycle::overflows            0      0.00%    100.00% # Number of insts issued each cycle
system.cpu.iq.issued_per_cycle::min_value            0                       # Number of insts issued each cycle
system.cpu.iq.issued_per_cycle::max_value            4                       # Number of insts issued each cycle
system.cpu.iq.issued_per_cycle::total         2536422                       # Number of insts issued each cycle
system.cpu.iq.rate                           1.520103                       # Inst issue rate
system.cpu.iq.vec_alu_accesses                      0                       # Number of vector alu accesses
system.cpu.iq.vec_inst_queue_reads                  0                       # Number of vector instruction queue reads
system.cpu.iq.vec_inst_queue_wakeup_accesses            0                       # Number of vector instruction queue wakeup accesses
system.cpu.iq.vec_inst_queue_writes                 0                       # Number of vector instruction queue writes
system.cpu.itb.rdAccesses                           0                       # TLB accesses on read requests
system.cpu.itb.rdMisses                             0                       # TLB misses on read requests
system.cpu.itb.wrAccesses                      234642                       # TLB accesses on write requests
system.cpu.itb.wrMisses                           353                       # TLB misses on write requests
system.cpu.memDep0.conflictingLoads             12319                       # Number of conflicting loads.
system.cpu.memDep0.conflictingStores             3717                       # Number of conflicting stores.
system.cpu.memDep0.insertedLoads               599118                       # Number of loads inserted to the mem dependence unit.
system.cpu.memDep0.insertedStores              196284                       # Number of stores inserted to the mem dependence unit.
system.cpu.misc_regfile_reads                 1529079                       # number of misc regfile reads
system.cpu.misc_regfile_writes                    675                       # number of misc regfile writes
system.cpu.numCycles                          2686304                       # number of cpu cycles simulated
system.cpu.numWorkItemsCompleted                    0                       # number of work items this cpu completed
system.cpu.numWorkItemsStarted                      0                       # number of work items this cpu started
system.cpu.process.numSyscalls                     56                       # Number of system calls
system.cpu.rename.BlockCycles                  835546                       # Number of cycles rename is blocking
system.cpu.rename.CommittedMaps               4826395                       # Number of HB maps that are committed
system.cpu.rename.FullRegisterEvents              119                       # Number of times there has been no free registers
system.cpu.rename.IQFullEvents                  43681                       # Number of times rename has blocked due to IQ full
system.cpu.rename.IdleCycles                   335938                       # Number of cycles rename is idle
system.cpu.rename.LQFullEvents                  16821                       # Number of times rename has blocked due to LQ full
system.cpu.rename.ROBFullEvents                  4414                       # Number of times rename has blocked due to ROB full
system.cpu.rename.RenameLookups              11860139                       # Number of register rename lookups that rename has made
system.cpu.rename.RenamedInsts                4537749                       # Number of instructions processed by rename
system.cpu.rename.RenamedOperands             6203138                       # Number of destination operands rename has renamed
system.cpu.rename.RunCycles                   1150041                       # Number of cycles rename is running
system.cpu.rename.SQFullEvents                  75035                       # Number of times rename has blocked due to SQ full
system.cpu.rename.SquashCycles                  24099                       # Number of cycles rename is squashing
system.cpu.rename.UnblockCycles                171515                       # Number of cycles rename is unblocking
system.cpu.rename.UndoneMaps                  1376720                       # Number of HB maps that are undone due to squashing
system.cpu.rename.fp_rename_lookups            156348                       # Number of floating rename lookups
system.cpu.rename.int_rename_lookups          7195259                       # Number of integer rename lookups
system.cpu.rename.serializeStallCycles          19283                       # count of cycles rename stalled for serializing inst
system.cpu.rename.serializingInsts                861                       # count of serializing insts renamed
system.cpu.rename.skidInsts                    198068                       # count of insts added to the skid buffer
system.cpu.rename.tempSerializingInsts            904                       # count of temporary serializing insts renamed
system.cpu.rob.rob_reads                      6109173                       # The number of ROB reads
system.cpu.rob.rob_writes                     9037137                       # The number of ROB writes
system.cpu.timesIdled                            1491                       # Number of times that the entire CPU went into an idle state and unscheduled itself
system.l2bus.snoop_filter.hit_multi_requests           10                       # Number of requests hitting in the snoop filter with multiple (>1) holders of the requested data.
system.l2bus.snoop_filter.hit_multi_snoops            0                       # Number of snoops hitting in the snoop filter with multiple (>1) holders of the requested data.
system.l2bus.snoop_filter.hit_single_requests        18192                       # Number of requests hitting in the snoop filter with a single holder of the requested data.
system.l2bus.snoop_filter.hit_single_snoops          419                       # Number of snoops hitting in the snoop filter with a single holder of the requested data.
system.l2bus.snoop_filter.tot_requests          37664                       # Total number of requests made to the snoop filter.
system.l2bus.snoop_filter.tot_snoops              419                       # Total number of snoops made to the snoop filter.
system.l2cache.prefetcher.num_hwpf_issued          626                       # number of hwpf issued
system.l2cache.prefetcher.pfBufferHit               0                       # number of redundant prefetches already in prefetch queue
system.l2cache.prefetcher.pfIdentified            627                       # number of prefetch candidates identified
system.l2cache.prefetcher.pfInCache                 0                       # number of redundant prefetches already in cache/mshr dropped
system.l2cache.prefetcher.pfRemovedFull             0                       # number of prefetches dropped due to prefetch queue size
system.l2cache.prefetcher.pfSpanPage              109                       # number of prefetches that crossed the page
system.membus.snoop_filter.hit_multi_requests            0                       # Number of requests hitting in the snoop filter with multiple (>1) holders of the requested data.
system.membus.snoop_filter.hit_multi_snoops            0                       # Number of snoops hitting in the snoop filter with multiple (>1) holders of the requested data.
system.membus.snoop_filter.hit_single_requests         9162                       # Number of requests hitting in the snoop filter with a single holder of the requested data.
system.membus.snoop_filter.hit_single_snoops            0                       # Number of snoops hitting in the snoop filter with a single holder of the requested data.
system.membus.snoop_filter.tot_requests         22443                       # Total number of requests made to the snoop filter.
system.membus.snoop_filter.tot_snoops               0                       # Total number of snoops made to the snoop filter.
system.membus.pwrStateResidencyTicks::UNDEFINED   1074521200                       # Cumulative time (in ticks) in various power states
system.membus.trans_dist::ReadResp              11972                       # Transaction distribution
system.membus.trans_dist::WritebackDirty         1317                       # Transaction distribution
system.membus.trans_dist::CleanEvict             7845                       # Transaction distribution
system.membus.trans_dist::ReadExReq              1309                       # Transaction distribution
system.membus.trans_dist::ReadExResp             1309                       # Transaction distribution
system.membus.trans_dist::ReadSharedReq         11972                       # Transaction distribution
system.membus.pkt_count_system.l2cache.mem_side::system.mem_ctrl.port        35724                       # Packet count per connected master and slave (bytes)
system.membus.pkt_count_system.l2cache.mem_side::total        35724                       # Packet count per connected master and slave (bytes)
system.membus.pkt_count::total                  35724                       # Packet count per connected master and slave (bytes)
system.membus.pkt_size_system.l2cache.mem_side::system.mem_ctrl.port       934272                       # Cumulative packet size per connected master and slave (bytes)
system.membus.pkt_size_system.l2cache.mem_side::total       934272                       # Cumulative packet size per connected master and slave (bytes)
system.membus.pkt_size::total                  934272                       # Cumulative packet size per connected master and slave (bytes)
system.membus.snoops                                0                       # Total snoops (count)
system.membus.snoopTraffic                          0                       # Total snoop traffic (bytes)
system.membus.snoop_fanout::samples             13281                       # Request fanout histogram
system.membus.snoop_fanout::mean                    0                       # Request fanout histogram
system.membus.snoop_fanout::stdev                   0                       # Request fanout histogram
system.membus.snoop_fanout::underflows              0      0.00%      0.00% # Request fanout histogram
system.membus.snoop_fanout::0                   13281    100.00%    100.00% # Request fanout histogram
system.membus.snoop_fanout::1                       0      0.00%    100.00% # Request fanout histogram
system.membus.snoop_fanout::overflows               0      0.00%    100.00% # Request fanout histogram
system.membus.snoop_fanout::min_value               0                       # Request fanout histogram
system.membus.snoop_fanout::max_value               0                       # Request fanout histogram
system.membus.snoop_fanout::total               13281                       # Request fanout histogram
system.membus.reqLayer2.occupancy            11109697                       # Layer occupancy (ticks)
system.membus.reqLayer2.utilization               1.0                       # Layer utilization (%)
system.membus.respLayer0.occupancy           28820203                       # Layer occupancy (ticks)
system.membus.respLayer0.utilization              2.7                       # Layer utilization (%)
system.l2bus.pwrStateResidencyTicks::UNDEFINED   1074521200                       # Cumulative time (in ticks) in various power states
system.l2bus.trans_dist::ReadResp               17423                       # Transaction distribution
system.l2bus.trans_dist::WritebackDirty          4068                       # Transaction distribution
system.l2bus.trans_dist::CleanEvict             23362                       # Transaction distribution
system.l2bus.trans_dist::HardPFReq                865                       # Transaction distribution
system.l2bus.trans_dist::ReadExReq               2049                       # Transaction distribution
system.l2bus.trans_dist::ReadExResp              2049                       # Transaction distribution
system.l2bus.trans_dist::ReadSharedReq          17423                       # Transaction distribution
system.l2bus.pkt_count_system.cpu.icache.mem_side::system.l2cache.cpu_side         7737                       # Packet count per connected master and slave (bytes)
system.l2bus.pkt_count_system.cpu.dcache.mem_side::system.l2cache.cpu_side        49396                       # Packet count per connected master and slave (bytes)
system.l2bus.pkt_count::total                   57133                       # Packet count per connected master and slave (bytes)
system.l2bus.pkt_size_system.cpu.icache.mem_side::system.l2cache.cpu_side       170496                       # Cumulative packet size per connected master and slave (bytes)
system.l2bus.pkt_size_system.cpu.dcache.mem_side::system.l2cache.cpu_side      1251584                       # Cumulative packet size per connected master and slave (bytes)
system.l2bus.pkt_size::total                  1422080                       # Cumulative packet size per connected master and slave (bytes)
system.l2bus.snoops                             10106                       # Total snoops (count)
system.l2bus.snoopTraffic                       84480                       # Total snoop traffic (bytes)
system.l2bus.snoop_fanout::samples              29575                       # Request fanout histogram
system.l2bus.snoop_fanout::mean              0.014505                       # Request fanout histogram
system.l2bus.snoop_fanout::stdev             0.119564                       # Request fanout histogram
system.l2bus.snoop_fanout::underflows               0      0.00%      0.00% # Request fanout histogram
system.l2bus.snoop_fanout::0                    29146     98.55%     98.55% # Request fanout histogram
system.l2bus.snoop_fanout::1                      429      1.45%    100.00% # Request fanout histogram
system.l2bus.snoop_fanout::2                        0      0.00%    100.00% # Request fanout histogram
system.l2bus.snoop_fanout::overflows                0      0.00%    100.00% # Request fanout histogram
system.l2bus.snoop_fanout::min_value                0                       # Request fanout histogram
system.l2bus.snoop_fanout::max_value                1                       # Request fanout histogram
system.l2bus.snoop_fanout::total                29575                       # Request fanout histogram
system.l2bus.respLayer1.occupancy            20169597                       # Layer occupancy (ticks)
system.l2bus.respLayer1.utilization               1.9                       # Layer utilization (%)
system.l2bus.reqLayer0.occupancy             18653254                       # Layer occupancy (ticks)
system.l2bus.reqLayer0.utilization                1.7                       # Layer utilization (%)
system.l2bus.respLayer0.occupancy             3199197                       # Layer occupancy (ticks)
system.l2bus.respLayer0.utilization               0.3                       # Layer utilization (%)
system.clk_domain.clock                           400                       # Clock period in ticks
system.clk_domain.voltage_domain.voltage            1                       # Voltage in Volts
system.cpu.pwrStateResidencyTicks::ON      1074521200                       # Cumulative time (in ticks) in various power states
system.cpu.icache.pwrStateResidencyTicks::UNDEFINED   1074521200                       # Cumulative time (in ticks) in various power states
system.cpu.icache.demand_hits::.cpu.inst       231182                       # number of demand (read+write) hits
system.cpu.icache.demand_hits::total           231182                       # number of demand (read+write) hits
system.cpu.icache.overall_hits::.cpu.inst       231182                       # number of overall hits
system.cpu.icache.overall_hits::total          231182                       # number of overall hits
system.cpu.icache.demand_misses::.cpu.inst         3344                       # number of demand (read+write) misses
system.cpu.icache.demand_misses::total           3344                       # number of demand (read+write) misses
system.cpu.icache.overall_misses::.cpu.inst         3344                       # number of overall misses
system.cpu.icache.overall_misses::total          3344                       # number of overall misses
system.cpu.icache.demand_miss_latency::.cpu.inst    168518000                       # number of demand (read+write) miss cycles
system.cpu.icache.demand_miss_latency::total    168518000                       # number of demand (read+write) miss cycles
system.cpu.icache.overall_miss_latency::.cpu.inst    168518000                       # number of overall miss cycles
system.cpu.icache.overall_miss_latency::total    168518000                       # number of overall miss cycles
system.cpu.icache.demand_accesses::.cpu.inst       234526                       # number of demand (read+write) accesses
system.cpu.icache.demand_accesses::total       234526                       # number of demand (read+write) accesses
system.cpu.icache.overall_accesses::.cpu.inst       234526                       # number of overall (read+write) accesses
system.cpu.icache.overall_accesses::total       234526                       # number of overall (read+write) accesses
system.cpu.icache.demand_miss_rate::.cpu.inst     0.014259                       # miss rate for demand accesses
system.cpu.icache.demand_miss_rate::total     0.014259                       # miss rate for demand accesses
system.cpu.icache.overall_miss_rate::.cpu.inst     0.014259                       # miss rate for overall accesses
system.cpu.icache.overall_miss_rate::total     0.014259                       # miss rate for overall accesses
system.cpu.icache.demand_avg_miss_latency::.cpu.inst 50394.138756                       # average overall miss latency
system.cpu.icache.demand_avg_miss_latency::total 50394.138756                       # average overall miss latency
system.cpu.icache.overall_avg_miss_latency::.cpu.inst 50394.138756                       # average overall miss latency
system.cpu.icache.overall_avg_miss_latency::total 50394.138756                       # average overall miss latency
system.cpu.icache.blocked_cycles::no_mshrs           59                       # number of cycles access was blocked
system.cpu.icache.blocked_cycles::no_targets            0                       # number of cycles access was blocked
system.cpu.icache.blocked::no_mshrs                 3                       # number of cycles access was blocked
system.cpu.icache.blocked::no_targets               0                       # number of cycles access was blocked
system.cpu.icache.avg_blocked_cycles::no_mshrs    19.666667                       # average number of cycles each access was blocked
system.cpu.icache.avg_blocked_cycles::no_targets          nan                       # average number of cycles each access was blocked
system.cpu.icache.writebacks::.writebacks            1                       # number of writebacks
system.cpu.icache.writebacks::total                 1                       # number of writebacks
system.cpu.icache.demand_mshr_hits::.cpu.inst          679                       # number of demand (read+write) MSHR hits
system.cpu.icache.demand_mshr_hits::total          679                       # number of demand (read+write) MSHR hits
system.cpu.icache.overall_mshr_hits::.cpu.inst          679                       # number of overall MSHR hits
system.cpu.icache.overall_mshr_hits::total          679                       # number of overall MSHR hits
system.cpu.icache.demand_mshr_misses::.cpu.inst         2665                       # number of demand (read+write) MSHR misses
system.cpu.icache.demand_mshr_misses::total         2665                       # number of demand (read+write) MSHR misses
system.cpu.icache.overall_mshr_misses::.cpu.inst         2665                       # number of overall MSHR misses
system.cpu.icache.overall_mshr_misses::total         2665                       # number of overall MSHR misses
system.cpu.icache.demand_mshr_miss_latency::.cpu.inst    134256800                       # number of demand (read+write) MSHR miss cycles
system.cpu.icache.demand_mshr_miss_latency::total    134256800                       # number of demand (read+write) MSHR miss cycles
system.cpu.icache.overall_mshr_miss_latency::.cpu.inst    134256800                       # number of overall MSHR miss cycles
system.cpu.icache.overall_mshr_miss_latency::total    134256800                       # number of overall MSHR miss cycles
system.cpu.icache.demand_mshr_miss_rate::.cpu.inst     0.011363                       # mshr miss rate for demand accesses
system.cpu.icache.demand_mshr_miss_rate::total     0.011363                       # mshr miss rate for demand accesses
system.cpu.icache.overall_mshr_miss_rate::.cpu.inst     0.011363                       # mshr miss rate for overall accesses
system.cpu.icache.overall_mshr_miss_rate::total     0.011363                       # mshr miss rate for overall accesses
system.cpu.icache.demand_avg_mshr_miss_latency::.cpu.inst 50377.786116                       # average overall mshr miss latency
system.cpu.icache.demand_avg_mshr_miss_latency::total 50377.786116                       # average overall mshr miss latency
system.cpu.icache.overall_avg_mshr_miss_latency::.cpu.inst 50377.786116                       # average overall mshr miss latency
system.cpu.icache.overall_avg_mshr_miss_latency::total 50377.786116                       # average overall mshr miss latency
system.cpu.icache.replacements                   2409                       # number of replacements
system.cpu.icache.ReadReq_hits::.cpu.inst       231182                       # number of ReadReq hits
system.cpu.icache.ReadReq_hits::total          231182                       # number of ReadReq hits
system.cpu.icache.ReadReq_misses::.cpu.inst         3344                       # number of ReadReq misses
system.cpu.icache.ReadReq_misses::total          3344                       # number of ReadReq misses
system.cpu.icache.ReadReq_miss_latency::.cpu.inst    168518000                       # number of ReadReq miss cycles
system.cpu.icache.ReadReq_miss_latency::total    168518000                       # number of ReadReq miss cycles
system.cpu.icache.ReadReq_accesses::.cpu.inst       234526                       # number of ReadReq accesses(hits+misses)
system.cpu.icache.ReadReq_accesses::total       234526                       # number of ReadReq accesses(hits+misses)
system.cpu.icache.ReadReq_miss_rate::.cpu.inst     0.014259                       # miss rate for ReadReq accesses
system.cpu.icache.ReadReq_miss_rate::total     0.014259                       # miss rate for ReadReq accesses
system.cpu.icache.ReadReq_avg_miss_latency::.cpu.inst 50394.138756                       # average ReadReq miss latency
system.cpu.icache.ReadReq_avg_miss_latency::total 50394.138756                       # average ReadReq miss latency
system.cpu.icache.ReadReq_mshr_hits::.cpu.inst          679                       # number of ReadReq MSHR hits
system.cpu.icache.ReadReq_mshr_hits::total          679                       # number of ReadReq MSHR hits
system.cpu.icache.ReadReq_mshr_misses::.cpu.inst         2665                       # number of ReadReq MSHR misses
system.cpu.icache.ReadReq_mshr_misses::total         2665                       # number of ReadReq MSHR misses
system.cpu.icache.ReadReq_mshr_miss_latency::.cpu.inst    134256800                       # number of ReadReq MSHR miss cycles
system.cpu.icache.ReadReq_mshr_miss_latency::total    134256800                       # number of ReadReq MSHR miss cycles
system.cpu.icache.ReadReq_mshr_miss_rate::.cpu.inst     0.011363                       # mshr miss rate for ReadReq accesses
system.cpu.icache.ReadReq_mshr_miss_rate::total     0.011363                       # mshr miss rate for ReadReq accesses
system.cpu.icache.ReadReq_avg_mshr_miss_latency::.cpu.inst 50377.786116                       # average ReadReq mshr miss latency
system.cpu.icache.ReadReq_avg_mshr_miss_latency::total 50377.786116                       # average ReadReq mshr miss latency
system.cpu.icache.prefetcher.pwrStateResidencyTicks::UNDEFINED   1074521200                       # Cumulative time (in ticks) in various power states
system.cpu.icache.tags.pwrStateResidencyTicks::UNDEFINED   1074521200                       # Cumulative time (in ticks) in various power states
system.cpu.icache.tags.tagsinuse           253.449593                       # Cycle average of tags in use
system.cpu.icache.tags.total_refs              211545                       # Total number of references to valid blocks.
system.cpu.icache.tags.sampled_refs              2409                       # Sample count of references to valid blocks.
system.cpu.icache.tags.avg_refs             87.814446                       # Average number of references to valid blocks.
system.cpu.icache.tags.warmup_cycle             66400                       # Cycle when the warmup percentage was hit.
system.cpu.icache.tags.occ_blocks::.cpu.inst   253.449593                       # Average occupied blocks per requestor
system.cpu.icache.tags.occ_percent::.cpu.inst     0.990037                       # Average percentage of cache occupancy
system.cpu.icache.tags.occ_percent::total     0.990037                       # Average percentage of cache occupancy
system.cpu.icache.tags.occ_task_id_blocks::1024          256                       # Occupied blocks per task id
system.cpu.icache.tags.age_task_id_blocks_1024::0          116                       # Occupied blocks per task id
system.cpu.icache.tags.age_task_id_blocks_1024::1          122                       # Occupied blocks per task id
system.cpu.icache.tags.age_task_id_blocks_1024::2           18                       # Occupied blocks per task id
system.cpu.icache.tags.occ_task_id_percent::1024            1                       # Percentage of cache occupancy per task id
system.cpu.icache.tags.tag_accesses            471717                       # Number of tag accesses
system.cpu.icache.tags.data_accesses           471717                       # Number of data accesses
system.cpu.dtb.walker.pwrStateResidencyTicks::UNDEFINED   1074521200                       # Cumulative time (in ticks) in various power states
system.cpu.interrupts.clk_domain.clock           6400                       # Clock period in ticks
system.cpu.itb.walker.pwrStateResidencyTicks::UNDEFINED   1074521200                       # Cumulative time (in ticks) in various power states
system.cpu.dcache.pwrStateResidencyTicks::UNDEFINED   1074521200                       # Cumulative time (in ticks) in various power states
system.cpu.dcache.demand_hits::.cpu.data       659177                       # number of demand (read+write) hits
system.cpu.dcache.demand_hits::total           659177                       # number of demand (read+write) hits
system.cpu.dcache.overall_hits::.cpu.data       659177                       # number of overall hits
system.cpu.dcache.overall_hits::total          659177                       # number of overall hits
system.cpu.dcache.demand_misses::.cpu.data        35171                       # number of demand (read+write) misses
system.cpu.dcache.demand_misses::total          35171                       # number of demand (read+write) misses
system.cpu.dcache.overall_misses::.cpu.data        35171                       # number of overall misses
system.cpu.dcache.overall_misses::total         35171                       # number of overall misses
system.cpu.dcache.demand_miss_latency::.cpu.data   1707085198                       # number of demand (read+write) miss cycles
system.cpu.dcache.demand_miss_latency::total   1707085198                       # number of demand (read+write) miss cycles
system.cpu.dcache.overall_miss_latency::.cpu.data   1707085198                       # number of overall miss cycles
system.cpu.dcache.overall_miss_latency::total   1707085198                       # number of overall miss cycles
system.cpu.dcache.demand_accesses::.cpu.data       694348                       # number of demand (read+write) accesses
system.cpu.dcache.demand_accesses::total       694348                       # number of demand (read+write) accesses
system.cpu.dcache.overall_accesses::.cpu.data       694348                       # number of overall (read+write) accesses
system.cpu.dcache.overall_accesses::total       694348                       # number of overall (read+write) accesses
system.cpu.dcache.demand_miss_rate::.cpu.data     0.050653                       # miss rate for demand accesses
system.cpu.dcache.demand_miss_rate::total     0.050653                       # miss rate for demand accesses
system.cpu.dcache.overall_miss_rate::.cpu.data     0.050653                       # miss rate for overall accesses
system.cpu.dcache.overall_miss_rate::total     0.050653                       # miss rate for overall accesses
system.cpu.dcache.demand_avg_miss_latency::.cpu.data 48536.726223                       # average overall miss latency
system.cpu.dcache.demand_avg_miss_latency::total 48536.726223                       # average overall miss latency
system.cpu.dcache.overall_avg_miss_latency::.cpu.data 48536.726223                       # average overall miss latency
system.cpu.dcache.overall_avg_miss_latency::total 48536.726223                       # average overall miss latency
system.cpu.dcache.blocked_cycles::no_mshrs        29138                       # number of cycles access was blocked
system.cpu.dcache.blocked_cycles::no_targets          106                       # number of cycles access was blocked
system.cpu.dcache.blocked::no_mshrs               760                       # number of cycles access was blocked
system.cpu.dcache.blocked::no_targets               2                       # number of cycles access was blocked
system.cpu.dcache.avg_blocked_cycles::no_mshrs    38.339474                       # average number of cycles each access was blocked
system.cpu.dcache.avg_blocked_cycles::no_targets           53                       # average number of cycles each access was blocked
system.cpu.dcache.unused_prefetches              1775                       # number of HardPF blocks evicted w/o reference
system.cpu.dcache.writebacks::.writebacks         2750                       # number of writebacks
system.cpu.dcache.writebacks::total              2750                       # number of writebacks
system.cpu.dcache.demand_mshr_hits::.cpu.data        22624                       # number of demand (read+write) MSHR hits
system.cpu.dcache.demand_mshr_hits::total        22624                       # number of demand (read+write) MSHR hits
system.cpu.dcache.overall_mshr_hits::.cpu.data        22624                       # number of overall MSHR hits
system.cpu.dcache.overall_mshr_hits::total        22624                       # number of overall MSHR hits
system.cpu.dcache.demand_mshr_misses::.cpu.data        12547                       # number of demand (read+write) MSHR misses
system.cpu.dcache.demand_mshr_misses::total        12547                       # number of demand (read+write) MSHR misses
system.cpu.dcache.overall_mshr_misses::.cpu.data        12547                       # number of overall MSHR misses
system.cpu.dcache.overall_mshr_misses::.cpu.dcache.prefetcher         4260                       # number of overall MSHR misses
system.cpu.dcache.overall_mshr_misses::total        16807                       # number of overall MSHR misses
system.cpu.dcache.demand_mshr_miss_latency::.cpu.data    573905598                       # number of demand (read+write) MSHR miss cycles
system.cpu.dcache.demand_mshr_miss_latency::total    573905598                       # number of demand (read+write) MSHR miss cycles
system.cpu.dcache.overall_mshr_miss_latency::.cpu.data    573905598                       # number of overall MSHR miss cycles
system.cpu.dcache.overall_mshr_miss_latency::.cpu.dcache.prefetcher    246423119                       # number of overall MSHR miss cycles
system.cpu.dcache.overall_mshr_miss_latency::total    820328717                       # number of overall MSHR miss cycles
system.cpu.dcache.demand_mshr_miss_rate::.cpu.data     0.018070                       # mshr miss rate for demand accesses
system.cpu.dcache.demand_mshr_miss_rate::total     0.018070                       # mshr miss rate for demand accesses
system.cpu.dcache.overall_mshr_miss_rate::.cpu.data     0.018070                       # mshr miss rate for overall accesses
system.cpu.dcache.overall_mshr_miss_rate::.cpu.dcache.prefetcher          inf                       # mshr miss rate for overall accesses
system.cpu.dcache.overall_mshr_miss_rate::total     0.024205                       # mshr miss rate for overall accesses
system.cpu.dcache.demand_avg_mshr_miss_latency::.cpu.data 45740.463697                       # average overall mshr miss latency
system.cpu.dcache.demand_avg_mshr_miss_latency::total 45740.463697                       # average overall mshr miss latency
system.cpu.dcache.overall_avg_mshr_miss_latency::.cpu.data 45740.463697                       # average overall mshr miss latency
system.cpu.dcache.overall_avg_mshr_miss_latency::.cpu.dcache.prefetcher 57845.802582                       # average overall mshr miss latency
system.cpu.dcache.overall_avg_mshr_miss_latency::total 48808.753317                       # average overall mshr miss latency
system.cpu.dcache.replacements                  15783                       # number of replacements
system.cpu.dcache.ReadReq_hits::.cpu.data       493963                       # number of ReadReq hits
system.cpu.dcache.ReadReq_hits::total          493963                       # number of ReadReq hits
system.cpu.dcache.ReadReq_misses::.cpu.data        33081                       # number of ReadReq misses
system.cpu.dcache.ReadReq_misses::total         33081                       # number of ReadReq misses
system.cpu.dcache.ReadReq_miss_latency::.cpu.data   1603828800                       # number of ReadReq miss cycles
system.cpu.dcache.ReadReq_miss_latency::total   1603828800                       # number of ReadReq miss cycles
system.cpu.dcache.ReadReq_accesses::.cpu.data       527044                       # number of ReadReq accesses(hits+misses)
system.cpu.dcache.ReadReq_accesses::total       527044                       # number of ReadReq accesses(hits+misses)
system.cpu.dcache.ReadReq_miss_rate::.cpu.data     0.062767                       # miss rate for ReadReq accesses
system.cpu.dcache.ReadReq_miss_rate::total     0.062767                       # miss rate for ReadReq accesses
system.cpu.dcache.ReadReq_avg_miss_latency::.cpu.data 48481.871769                       # average ReadReq miss latency
system.cpu.dcache.ReadReq_avg_miss_latency::total 48481.871769                       # average ReadReq miss latency
system.cpu.dcache.ReadReq_mshr_hits::.cpu.data        22582                       # number of ReadReq MSHR hits
system.cpu.dcache.ReadReq_mshr_hits::total        22582                       # number of ReadReq MSHR hits
system.cpu.dcache.ReadReq_mshr_misses::.cpu.data        10499                       # number of ReadReq MSHR misses
system.cpu.dcache.ReadReq_mshr_misses::total        10499                       # number of ReadReq MSHR misses
system.cpu.dcache.ReadReq_mshr_miss_latency::.cpu.data    474373600                       # number of ReadReq MSHR miss cycles
system.cpu.dcache.ReadReq_mshr_miss_latency::total    474373600                       # number of ReadReq MSHR miss cycles
system.cpu.dcache.ReadReq_mshr_miss_rate::.cpu.data     0.019921                       # mshr miss rate for ReadReq accesses
system.cpu.dcache.ReadReq_mshr_miss_rate::total     0.019921                       # mshr miss rate for ReadReq accesses
system.cpu.dcache.ReadReq_avg_mshr_miss_latency::.cpu.data 45182.741213                       # average ReadReq mshr miss latency
system.cpu.dcache.ReadReq_avg_mshr_miss_latency::total 45182.741213                       # average ReadReq mshr miss latency
system.cpu.dcache.WriteReq_hits::.cpu.data       165214                       # number of WriteReq hits
system.cpu.dcache.WriteReq_hits::total         165214                       # number of WriteReq hits
system.cpu.dcache.WriteReq_misses::.cpu.data         2090                       # number of WriteReq misses
system.cpu.dcache.WriteReq_misses::total         2090                       # number of WriteReq misses
system.cpu.dcache.WriteReq_miss_latency::.cpu.data    103256398                       # number of WriteReq miss cycles
system.cpu.dcache.WriteReq_miss_latency::total    103256398                       # number of WriteReq miss cycles
system.cpu.dcache.WriteReq_accesses::.cpu.data       167304                       # number of WriteReq accesses(hits+misses)
system.cpu.dcache.WriteReq_accesses::total       167304                       # number of WriteReq accesses(hits+misses)
system.cpu.dcache.WriteReq_miss_rate::.cpu.data     0.012492                       # miss rate for WriteReq accesses
system.cpu.dcache.WriteReq_miss_rate::total     0.012492                       # miss rate for WriteReq accesses
system.cpu.dcache.WriteReq_avg_miss_latency::.cpu.data 49404.975120                       # average WriteReq miss latency
system.cpu.dcache.WriteReq_avg_miss_latency::total 49404.975120                       # average WriteReq miss latency
system.cpu.dcache.WriteReq_mshr_hits::.cpu.data           42                       # number of WriteReq MSHR hits
system.cpu.dcache.WriteReq_mshr_hits::total           42                       # number of WriteReq MSHR hits
system.cpu.dcache.WriteReq_mshr_misses::.cpu.data         2048                       # number of WriteReq MSHR misses
system.cpu.dcache.WriteReq_mshr_misses::total         2048                       # number of WriteReq MSHR misses
[...]
system.l2cache.demand_mshr_miss_rate::.cpu.data     0.622837                       # mshr miss rate for demand accesses
system.l2cache.demand_mshr_miss_rate::.cpu.dcache.prefetcher     0.791667                       # mshr miss rate for demand accesses
system.l2cache.demand_mshr_miss_rate::total     0.552058                       # mshr miss rate for demand accesses
system.l2cache.overall_mshr_miss_rate::.cpu.inst     0.516630                       # mshr miss rate for overall accesses
system.l2cache.overall_mshr_miss_rate::.cpu.data     0.622837                       # mshr miss rate for overall accesses
system.l2cache.overall_mshr_miss_rate::.cpu.dcache.prefetcher     0.791667                       # mshr miss rate for overall accesses
system.l2cache.overall_mshr_miss_rate::.l2cache.prefetcher          inf                       # mshr miss rate for overall accesses
system.l2cache.overall_mshr_miss_rate::total     0.555287                       # mshr miss rate for overall accesses
system.l2cache.demand_avg_mshr_miss_latency::.cpu.inst 59890.128755                       # average overall mshr miss latency
system.l2cache.demand_avg_mshr_miss_latency::.cpu.data 62471.111111                       # average overall mshr miss latency
system.l2cache.demand_avg_mshr_miss_latency::.cpu.dcache.prefetcher 59420.026316                       # average overall mshr miss latency
system.l2cache.demand_avg_mshr_miss_latency::total 60543.217836                       # average overall mshr miss latency
system.l2cache.overall_avg_mshr_miss_latency::.cpu.inst 59890.128755                       # average overall mshr miss latency
system.l2cache.overall_avg_mshr_miss_latency::.cpu.data 62471.111111                       # average overall mshr miss latency
system.l2cache.overall_avg_mshr_miss_latency::.cpu.dcache.prefetcher 59420.026316                       # average overall mshr miss latency
system.l2cache.overall_avg_mshr_miss_latency::.l2cache.prefetcher 54398.750000                       # average overall mshr miss latency
system.l2cache.overall_avg_mshr_miss_latency::total 60507.494186                       # average overall mshr miss latency
system.l2cache.replacements                       697                       # number of replacements
system.l2cache.WritebackDirty_hits::.writebacks           68                       # number of WritebackDirty hits
system.l2cache.WritebackDirty_hits::total           68                       # number of WritebackDirty hits
system.l2cache.WritebackDirty_accesses::.writebacks           68                       # number of WritebackDirty accesses(hits+misses)
system.l2cache.WritebackDirty_accesses::total           68                       # number of WritebackDirty accesses(hits+misses)
system.l2cache.CleanEvict_mshr_misses::.writebacks           21                       # number of CleanEvict MSHR misses
system.l2cache.CleanEvict_mshr_misses::total           21                       # number of CleanEvict MSHR misses
system.l2cache.CleanEvict_mshr_miss_rate::.writebacks          inf                       # mshr miss rate for CleanEvict accesses
system.l2cache.CleanEvict_mshr_miss_rate::total          inf                       # mshr miss rate for CleanEvict accesses
system.l2cache.HardPFReq_mshr_misses::.l2cache.prefetcher            4                       # number of HardPFReq MSHR misses
system.l2cache.HardPFReq_mshr_misses::total            4                       # number of HardPFReq MSHR misses
system.l2cache.HardPFReq_mshr_miss_latency::.l2cache.prefetcher       217595                       # number of HardPFReq MSHR miss cycles
system.l2cache.HardPFReq_mshr_miss_latency::total       217595                       # number of HardPFReq MSHR miss cycles
system.l2cache.HardPFReq_mshr_miss_rate::.l2cache.prefetcher          inf                       # mshr miss rate for HardPFReq accesses
system.l2cache.HardPFReq_mshr_miss_rate::total          inf                       # mshr miss rate for HardPFReq accesses
system.l2cache.HardPFReq_avg_mshr_miss_latency::.l2cache.prefetcher 54398.750000                       # average HardPFReq mshr miss latency
system.l2cache.HardPFReq_avg_mshr_miss_latency::total 54398.750000                       # average HardPFReq mshr miss latency
system.l2cache.ReadExReq_hits::.cpu.data            4                       # number of ReadExReq hits
system.l2cache.ReadExReq_hits::total                4                       # number of ReadExReq hits
system.l2cache.ReadExReq_misses::.cpu.data           29                       # number of ReadExReq misses
system.l2cache.ReadExReq_misses::total             29                       # number of ReadExReq misses
system.l2cache.ReadExReq_miss_latency::.cpu.data      2210400                       # number of ReadExReq miss cycles
system.l2cache.ReadExReq_miss_latency::total      2210400                       # number of ReadExReq miss cycles
system.l2cache.ReadExReq_accesses::.cpu.data           33                       # number of ReadExReq accesses(hits+misses)
system.l2cache.ReadExReq_accesses::total           33                       # number of ReadExReq accesses(hits+misses)
system.l2cache.ReadExReq_miss_rate::.cpu.data     0.878788                       # miss rate for ReadExReq accesses
system.l2cache.ReadExReq_miss_rate::total     0.878788                       # miss rate for ReadExReq accesses
system.l2cache.ReadExReq_avg_miss_latency::.cpu.data 76220.689655                       # average ReadExReq miss latency
system.l2cache.ReadExReq_avg_miss_latency::total 76220.689655                       # average ReadExReq miss latency
system.l2cache.ReadExReq_mshr_misses::.cpu.data           29                       # number of ReadExReq MSHR misses
system.l2cache.ReadExReq_mshr_misses::total           29                       # number of ReadExReq MSHR misses
system.l2cache.ReadExReq_mshr_miss_latency::.cpu.data      1978400                       # number of ReadExReq MSHR miss cycles
system.l2cache.ReadExReq_mshr_miss_latency::total      1978400                       # number of ReadExReq MSHR miss cycles
system.l2cache.ReadExReq_mshr_miss_rate::.cpu.data     0.878788                       # mshr miss rate for ReadExReq accesses
system.l2cache.ReadExReq_mshr_miss_rate::total     0.878788                       # mshr miss rate for ReadExReq accesses
system.l2cache.ReadExReq_avg_mshr_miss_latency::.cpu.data 68220.689655                       # average ReadExReq mshr miss latency
system.l2cache.ReadExReq_avg_mshr_miss_latency::total 68220.689655                       # average ReadExReq mshr miss latency
system.l2cache.ReadSharedReq_hits::.cpu.inst          436                       # number of ReadSharedReq hits
system.l2cache.ReadSharedReq_hits::.cpu.data          104                       # number of ReadSharedReq hits
system.l2cache.ReadSharedReq_hits::.cpu.dcache.prefetcher           10                       # number of ReadSharedReq hits
system.l2cache.ReadSharedReq_hits::total          550                       # number of ReadSharedReq hits
system.l2cache.ReadSharedReq_misses::.cpu.inst          466                       # number of ReadSharedReq misses
system.l2cache.ReadSharedReq_misses::.cpu.data          152                       # number of ReadSharedReq misses
system.l2cache.ReadSharedReq_misses::.cpu.dcache.prefetcher           38                       # number of ReadSharedReq misses
system.l2cache.ReadSharedReq_misses::total          656                       # number of ReadSharedReq misses
system.l2cache.ReadSharedReq_miss_latency::.cpu.inst     31636800                       # number of ReadSharedReq miss cycles
system.l2cache.ReadSharedReq_miss_latency::.cpu.data     10530800                       # number of ReadSharedReq miss cycles
system.l2cache.ReadSharedReq_miss_latency::.cpu.dcache.prefetcher      2561961                       # number of ReadSharedReq miss cycles
system.l2cache.ReadSharedReq_miss_latency::total     44729561                       # number of ReadSharedReq miss cycles
system.l2cache.ReadSharedReq_accesses::.cpu.inst          902                       # number of ReadSharedReq accesses(hits+misses)
system.l2cache.ReadSharedReq_accesses::.cpu.data          256                       # number of ReadSharedReq accesses(hits+misses)
system.l2cache.ReadSharedReq_accesses::.cpu.dcache.prefetcher           48                       # number of ReadSharedReq accesses(hits+misses)
system.l2cache.ReadSharedReq_accesses::total         1206                       # number of ReadSharedReq accesses(hits+misses)
system.l2cache.ReadSharedReq_miss_rate::.cpu.inst     0.516630                       # miss rate for ReadSharedReq accesses
system.l2cache.ReadSharedReq_miss_rate::.cpu.data     0.593750                       # miss rate for ReadSharedReq accesses
system.l2cache.ReadSharedReq_miss_rate::.cpu.dcache.prefetcher     0.791667                       # miss rate for ReadSharedReq accesses
system.l2cache.ReadSharedReq_miss_rate::total     0.543947                       # miss rate for ReadSharedReq accesses
system.l2cache.ReadSharedReq_avg_miss_latency::.cpu.inst 67890.128755                       # average ReadSharedReq miss latency
system.l2cache.ReadSharedReq_avg_miss_latency::.cpu.data 69281.578947                       # average ReadSharedReq miss latency
system.l2cache.ReadSharedReq_avg_miss_latency::.cpu.dcache.prefetcher 67420.026316                       # average ReadSharedReq miss latency
system.l2cache.ReadSharedReq_avg_miss_latency::total 68185.306402                       # average ReadSharedReq miss latency
system.l2cache.ReadSharedReq_mshr_hits::.cpu.data            1                       # number of ReadSharedReq MSHR hits
system.l2cache.ReadSharedReq_mshr_hits::total            1                       # number of ReadSharedReq MSHR hits
system.l2cache.ReadSharedReq_mshr_misses::.cpu.inst          466                       # number of ReadSharedReq MSHR misses
system.l2cache.ReadSharedReq_mshr_misses::.cpu.data          151                       # number of ReadSharedReq MSHR misses
system.l2cache.ReadSharedReq_mshr_misses::.cpu.dcache.prefetcher           38                       # number of ReadSharedReq MSHR misses
system.l2cache.ReadSharedReq_mshr_misses::total          655                       # number of ReadSharedReq MSHR misses
system.l2cache.ReadSharedReq_mshr_miss_latency::.cpu.inst     27908800                       # number of ReadSharedReq MSHR miss cycles
system.l2cache.ReadSharedReq_mshr_miss_latency::.cpu.data      9266400                       # number of ReadSharedReq MSHR miss cycles
system.l2cache.ReadSharedReq_mshr_miss_latency::.cpu.dcache.prefetcher      2257961                       # number of ReadSharedReq MSHR miss cycles
system.l2cache.ReadSharedReq_mshr_miss_latency::total     39433161                       # number of ReadSharedReq MSHR miss cycles
system.l2cache.ReadSharedReq_mshr_miss_rate::.cpu.inst     0.516630                       # mshr miss rate for ReadSharedReq accesses
system.l2cache.ReadSharedReq_mshr_miss_rate::.cpu.data     0.589844                       # mshr miss rate for ReadSharedReq accesses
system.l2cache.ReadSharedReq_mshr_miss_rate::.cpu.dcache.prefetcher     0.791667                       # mshr miss rate for ReadSharedReq accesses
system.l2cache.ReadSharedReq_mshr_miss_rate::total     0.543118                       # mshr miss rate for ReadSharedReq accesses
system.l2cache.ReadSharedReq_avg_mshr_miss_latency::.cpu.inst 59890.128755                       # average ReadSharedReq mshr miss latency
system.l2cache.ReadSharedReq_avg_mshr_miss_latency::.cpu.data 61366.887417                       # average ReadSharedReq mshr miss latency
system.l2cache.ReadSharedReq_avg_mshr_miss_latency::.cpu.dcache.prefetcher 59420.026316                       # average ReadSharedReq mshr miss latency
system.l2cache.ReadSharedReq_avg_mshr_miss_latency::total 60203.299237                       # average ReadSharedReq mshr miss latency
system.l2cache.prefetcher.pwrStateResidencyTicks::UNDEFINED     45060000                       # Cumulative time (in ticks) in various power states
system.l2cache.tags.pwrStateResidencyTicks::UNDEFINED     45060000                       # Cumulative time (in ticks) in various power states
system.l2cache.tags.tagsinuse                    4096                       # Cycle average of tags in use
system.l2cache.tags.total_refs                  14868                       # Total number of references to valid blocks.
system.l2cache.tags.sampled_refs                 4793                       # Sample count of references to valid blocks.
system.l2cache.tags.avg_refs                 3.102024                       # Average number of references to valid blocks.
system.l2cache.tags.warmup_cycle                    0                       # Cycle when the warmup percentage was hit.
system.l2cache.tags.occ_blocks::.writebacks    36.570999                       # Average occupied blocks per requestor
system.l2cache.tags.occ_blocks::.cpu.inst  1190.055451                       # Average occupied blocks per requestor
system.l2cache.tags.occ_blocks::.cpu.data  1807.156598                       # Average occupied blocks per requestor
system.l2cache.tags.occ_blocks::.cpu.dcache.prefetcher   940.096598                       # Average occupied blocks per requestor
system.l2cache.tags.occ_blocks::.l2cache.prefetcher   122.120355                       # Average occupied blocks per requestor
system.l2cache.tags.occ_percent::.writebacks     0.008928                       # Average percentage of cache occupancy
system.l2cache.tags.occ_percent::.cpu.inst     0.290541                       # Average percentage of cache occupancy
system.l2cache.tags.occ_percent::.cpu.data     0.441200                       # Average percentage of cache occupancy
system.l2cache.tags.occ_percent::.cpu.dcache.prefetcher     0.229516                       # Average percentage of cache occupancy
system.l2cache.tags.occ_percent::.l2cache.prefetcher     0.029815                       # Average percentage of cache occupancy
system.l2cache.tags.occ_percent::total              1                       # Average percentage of cache occupancy
system.l2cache.tags.occ_task_id_blocks::1022          955                       # Occupied blocks per task id
system.l2cache.tags.occ_task_id_blocks::1024         3141                       # Occupied blocks per task id
system.l2cache.tags.age_task_id_blocks_1022::0            5                       # Occupied blocks per task id
system.l2cache.tags.age_task_id_blocks_1022::1           92                       # Occupied blocks per task id
system.l2cache.tags.age_task_id_blocks_1022::2          855                       # Occupied blocks per task id
system.l2cache.tags.age_task_id_blocks_1022::3            3                       # Occupied blocks per task id
system.l2cache.tags.age_task_id_blocks_1024::0          179                       # Occupied blocks per task id
system.l2cache.tags.age_task_id_blocks_1024::1          965                       # Occupied blocks per task id
system.l2cache.tags.age_task_id_blocks_1024::2         1950                       # Occupied blocks per task id
system.l2cache.tags.age_task_id_blocks_1024::3           47                       # Occupied blocks per task id
system.l2cache.tags.occ_task_id_percent::1022     0.233154                       # Percentage of cache occupancy per task id
system.l2cache.tags.occ_task_id_percent::1024     0.766846                       # Percentage of cache occupancy per task id
system.l2cache.tags.tag_accesses                20505                       # Number of tag accesses
system.l2cache.tags.data_accesses               20505                       # Number of data accesses
system.mem_ctrl.pwrStateResidencyTicks::UNDEFINED     45060000                       # Cumulative time (in ticks) in various power states
system.mem_ctrl.bytes_read::.cpu.inst           29824                       # Number of bytes read from this memory
system.mem_ctrl.bytes_read::.cpu.data           11520                       # Number of bytes read from this memory
system.mem_ctrl.bytes_read::.cpu.dcache.prefetcher         2432                       # Number of bytes read from this memory
system.mem_ctrl.bytes_read::.l2cache.prefetcher          256                       # Number of bytes read from this memory
system.mem_ctrl.bytes_read::total               44032                       # Number of bytes read from this memory
system.mem_ctrl.bytes_inst_read::.cpu.inst        29824                       # Number of instructions bytes read from this memory
system.mem_ctrl.bytes_inst_read::total          29824                       # Number of instructions bytes read from this memory
system.mem_ctrl.bytes_written::.writebacks         3392                       # Number of bytes written to this memory
system.mem_ctrl.bytes_written::total             3392                       # Number of bytes written to this memory
system.mem_ctrl.num_reads::.cpu.inst              466                       # Number of read requests responded to by this memory
system.mem_ctrl.num_reads::.cpu.data              180                       # Number of read requests responded to by this memory
system.mem_ctrl.num_reads::.cpu.dcache.prefetcher           38                       # Number of read requests responded to by this memory
system.mem_ctrl.num_reads::.l2cache.prefetcher            4                       # Number of read requests responded to by this memory
system.mem_ctrl.num_reads::total                  688                       # Number of read requests responded to by this memory
system.mem_ctrl.num_writes::.writebacks            53                       # Number of write requests responded to by this memory
system.mem_ctrl.num_writes::total                  53                       # Number of write requests responded to by this memory
system.mem_ctrl.bw_read::.cpu.inst          661873058                       # Total read bandwidth from this memory (bytes/s)
system.mem_ctrl.bw_read::.cpu.data          255659121                       # Total read bandwidth from this memory (bytes/s)
system.mem_ctrl.bw_read::.cpu.dcache.prefetcher     53972481                       # Total read bandwidth from this memory (bytes/s)
system.mem_ctrl.bw_read::.l2cache.prefetcher      5681314                       # Total read bandwidth from this memory (bytes/s)
system.mem_ctrl.bw_read::total              977185974                       # Total read bandwidth from this memory (bytes/s)
system.mem_ctrl.bw_inst_read::.cpu.inst     661873058                       # Instruction read bandwidth from this memory (bytes/s)
system.mem_ctrl.bw_inst_read::total         661873058                       # Instruction read bandwidth from this memory (bytes/s)
system.mem_ctrl.bw_write::.writebacks        75277408                       # Write bandwidth from this memory (bytes/s)
system.mem_ctrl.bw_write::total              75277408                       # Write bandwidth from this memory (bytes/s)
system.mem_ctrl.bw_total::.writebacks        75277408                       # Total bandwidth to/from this memory (bytes/s)
system.mem_ctrl.bw_total::.cpu.inst         661873058                       # Total bandwidth to/from this memory (bytes/s)
system.mem_ctrl.bw_total::.cpu.data         255659121                       # Total bandwidth to/from this memory (bytes/s)
system.mem_ctrl.bw_total::.cpu.dcache.prefetcher     53972481                       # Total bandwidth to/from this memory (bytes/s)
system.mem_ctrl.bw_total::.l2cache.prefetcher      5681314                       # Total bandwidth to/from this memory (bytes/s)
system.mem_ctrl.bw_total::total            1052463382                       # Total bandwidth to/from this memory (bytes/s)

---------- End Simulation Statistics   ----------
