
---------- Begin Simulation Statistics ----------
final_tick                                 2694818400                       # Number of ticks from beginning of simulation (restored from checkpoints and never reset)
host_inst_rate                                 190087                       # Simulator instruction rate (inst/s)
host_mem_usage                                4406824                       # Number of bytes of host memory used
host_op_rate                                   352583                       # Simulator op (including micro ops) rate (op/s)
host_seconds                                    36.11                       # Real time elapsed on the host
host_tick_rate                               74636277                       # Simulator tick rate (ticks/s)
sim_freq                                 1000000000000                       # Frequency of simulated ticks
sim_insts                                     6863260                       # Number of instructions simulated
sim_ops                                      12730374                       # Number of ops (including micro ops) simulated
sim_seconds                                  0.002695                       # Number of seconds simulated
sim_ticks                                  2694818400                       # Number of ticks simulated
system.cpu.branchPred.BTBCorrect                    0                       # Number of correct BTB predictions (this stat may not work properly.
system.cpu.branchPred.BTBHitPct              0.000000                       # BTB Hit Percentage
system.cpu.branchPred.BTBHits                       0                       # Number of BTB hits
system.cpu.branchPred.BTBLookups              1356624                       # Number of BTB lookups
system.cpu.branchPred.RASInCorrect                  7                       # Number of incorrect RAS predictions.
system.cpu.branchPred.condIncorrect             55188                       # Number of conditional branches incorrect
system.cpu.branchPred.condPredicted           1394695                       # Number of conditional branches predicted
system.cpu.branchPred.indirectHits             724357                       # Number of indirect target hits.
system.cpu.branchPred.indirectLookups         1356624                       # Number of indirect predictor lookups.
system.cpu.branchPred.indirectMisses           632267                       # Number of indirect misses.
system.cpu.branchPred.lookups                 1580538                       # Number of BP lookups
system.cpu.branchPred.usedRAS                   94735                       # Number of times the RAS was used to get a target.
system.cpu.branchPredindirectMispredicted        32834                       # Number of mispredicted indirect branches.
system.cpu.cc_regfile_reads                   7703650                       # number of cc regfile reads
system.cpu.cc_regfile_writes                  5137050                       # number of cc regfile writes
system.cpu.commit.amos                              0                       # Number of atomic instructions committed
system.cpu.commit.branchMispredicts             55312                       # The number of times a branch was mispredicted
system.cpu.commit.branches                    1310094                       # Number of branches committed
system.cpu.commit.bw_lim_events               2025858                       # number cycles where commit BW limit reached
system.cpu.commit.commitNonSpecStalls             754                       # The number of times commit has been forced to stall to communicate backwards
system.cpu.commit.commitSquashedInsts         1520030                       # The number of squashed insts skipped by commit
system.cpu.commit.committedInsts              6863260                       # Number of instructions committed
system.cpu.commit.committedOps               12730374                       # Number of ops (including micro ops) committed
system.cpu.commit.committed_per_cycle::samples      6160072                       # Number of insts commited each cycle
system.cpu.commit.committed_per_cycle::mean     2.066595                       # Number of insts commited each cycle
system.cpu.commit.committed_per_cycle::stdev     1.645370                       # Number of insts commited each cycle
system.cpu.commit.committed_per_cycle::underflows            0      0.00%      0.00% # Number of insts commited each cycle
system.cpu.commit.committed_per_cycle::0      1711750     27.79%     27.79% # Number of insts commited each cycle
system.cpu.commit.committed_per_cycle::1       985837     16.00%     43.79% # Number of insts commited each cycle
system.cpu.commit.committed_per_cycle::2       668776     10.86%     54.65% # Number of insts commited each cycle
system.cpu.commit.committed_per_cycle::3       767851     12.46%     67.11% # Number of insts commited each cycle
system.cpu.commit.committed_per_cycle::4      2025858     32.89%    100.00% # Number of insts commited each cycle
system.cpu.commit.committed_per_cycle::overflows            0      0.00%    100.00% # Number of insts commited each cycle
system.cpu.commit.committed_per_cycle::min_value            0                       # Number of insts commited each cycle
system.cpu.commit.committed_per_cycle::max_value            4                       # Number of insts commited each cycle
system.cpu.commit.committed_per_cycle::total      6160072                       # Number of insts commited each cycle
system.cpu.commit.fp_insts                     372781                       # Number of committed floating point instructions.
system.cpu.commit.function_calls                82878                       # Number of function calls committed.
system.cpu.commit.int_insts                  12421350                       # Number of committed integer instructions.
system.cpu.commit.loads                       1577279                       # Number of loads committed
system.cpu.commit.membars                           1                       # Number of memory barriers committed
system.cpu.commit.op_class_0::No_OpClass        53233      0.42%      0.42% # Class of committed instruction
system.cpu.commit.op_class_0::IntAlu          9861100     77.46%     77.88% # Class of committed instruction
system.cpu.commit.op_class_0::IntMult           55431      0.44%     78.31% # Class of committed instruction
system.cpu.commit.op_class_0::IntDiv            37787      0.30%     78.61% # Class of committed instruction
system.cpu.commit.op_class_0::FloatAdd          15177      0.12%     78.73% # Class of committed instruction
system.cpu.commit.op_class_0::FloatCmp              0      0.00%     78.73% # Class of committed instruction
system.cpu.commit.op_class_0::FloatCvt           1216      0.01%     78.74% # Class of committed instruction
system.cpu.commit.op_class_0::FloatMult             0      0.00%     78.74% # Class of committed instruction
system.cpu.commit.op_class_0::FloatMultAcc            0      0.00%     78.74% # Class of committed instruction
system.cpu.commit.op_class_0::FloatDiv              0      0.00%     78.74% # Class of committed instruction
system.cpu.commit.op_class_0::FloatMisc             0      0.00%     78.74% # Class of committed instruction
system.cpu.commit.op_class_0::FloatSqrt             0      0.00%     78.74% # Class of committed instruction
system.cpu.commit.op_class_0::SimdAdd            6262      0.05%     78.79% # Class of committed instruction
system.cpu.commit.op_class_0::SimdAddAcc            0      0.00%     78.79% # Class of committed instruction
system.cpu.commit.op_class_0::SimdAlu           60405      0.47%     79.26% # Class of committed instruction
system.cpu.commit.op_class_0::SimdCmp               0      0.00%     79.26% # Class of committed instruction
system.cpu.commit.op_class_0::SimdCvt           61362      0.48%     79.75% # Class of committed instruction
system.cpu.commit.op_class_0::SimdMisc         117158      0.92%     80.67% # Class of committed instruction
system.cpu.commit.op_class_0::SimdMult              0      0.00%     80.67% # Class of committed instruction
system.cpu.commit.op_class_0::SimdMultAcc            0      0.00%     80.67% # Class of committed instruction
system.cpu.commit.op_class_0::SimdShift          1162      0.01%     80.68% # Class of committed instruction
system.cpu.commit.op_class_0::SimdShiftAcc            0      0.00%     80.68% # Class of committed instruction
system.cpu.commit.op_class_0::SimdDiv               0      0.00%     80.68% # Class of committed instruction
system.cpu.commit.op_class_0::SimdSqrt              0      0.00%     80.68% # Class of committed instruction
system.cpu.commit.op_class_0::SimdFloatAdd            0      0.00%     80.68% # Class of committed instruction
system.cpu.commit.op_class_0::SimdFloatAlu            0      0.00%     80.68% # Class of committed instruction
system.cpu.commit.op_class_0::SimdFloatCmp            0      0.00%     80.68% # Class of committed instruction
system.cpu.commit.op_class_0::SimdFloatCvt            0      0.00%     80.68% # Class of committed instruction
system.cpu.commit.op_class_0::SimdFloatDiv            0      0.00%     80.68% # Class of committed instruction
system.cpu.commit.op_class_0::SimdFloatMisc            0      0.00%     80.68% # Class of committed instruction
system.cpu.commit.op_class_0::SimdFloatMult            0      0.00%     80.68% # Class of committed instruction
system.cpu.commit.op_class_0::SimdFloatMultAcc            0      0.00%     80.68% # Class of committed instruction
system.cpu.commit.op_class_0::SimdFloatSqrt            0      0.00%     80.68% # Class of committed instruction
system.cpu.commit.op_class_0::SimdReduceAdd            0      0.00%     80.68% # Class of committed instruction
system.cpu.commit.op_class_0::SimdReduceAlu            0      0.00%     80.68% # Class of committed instruction
system.cpu.commit.op_class_0::SimdReduceCmp            0      0.00%     80.68% # Class of committed instruction
system.cpu.commit.op_class_0::SimdFloatReduceAdd            0      0.00%     80.68% # Class of committed instruction
system.cpu.commit.op_class_0::SimdFloatReduceCmp            0      0.00%     80.68% # Class of committed instruction
system.cpu.commit.op_class_0::SimdAes               0      0.00%     80.68% # Class of committed instruction
system.cpu.commit.op_class_0::SimdAesMix            0      0.00%     80.68% # Class of committed instruction
system.cpu.commit.op_class_0::SimdSha1Hash            0      0.00%     80.68% # Class of committed instruction
system.cpu.commit.op_class_0::SimdSha1Hash2            0      0.00%     80.68% # Class of committed instruction
system.cpu.commit.op_class_0::SimdSha256Hash            0      0.00%     80.68% # Class of committed instruction
system.cpu.commit.op_class_0::SimdSha256Hash2            0      0.00%     80.68% # Class of committed instruction
system.cpu.commit.op_class_0::SimdShaSigma2            0      0.00%     80.68% # Class of committed instruction
system.cpu.commit.op_class_0::SimdShaSigma3            0      0.00%     80.68% # Class of committed instruction
system.cpu.commit.op_class_0::SimdPredAlu            0      0.00%     80.68% # Class of committed instruction
system.cpu.commit.op_class_0::MemRead         1525247     11.98%     92.66% # Class of committed instruction
system.cpu.commit.op_class_0::MemWrite         862499      6.78%     99.43% # Class of committed instruction
system.cpu.commit.op_class_0::FloatMemRead        52032      0.41%     99.84% # Class of committed instruction
system.cpu.commit.op_class_0::FloatMemWrite        20303      0.16%    100.00% # Class of committed instruction
system.cpu.commit.op_class_0::IprAccess             0      0.00%    100.00% # Class of committed instruction
system.cpu.commit.op_class_0::InstPrefetch            0      0.00%    100.00% # Class of committed instruction
system.cpu.commit.op_class_0::total          12730374                       # Class of committed instruction
system.cpu.commit.refs                        2460081                       # Number of memory references committed
system.cpu.commit.swp_count                         0                       # Number of s/w prefetches committed
system.cpu.commit.vec_insts                         0                       # Number of committed Vector instructions.
system.cpu.committedInsts                     6863260                       # Number of Instructions Simulated
system.cpu.committedOps                      12730374                       # Number of Ops (including micro ops) Simulated
system.cpu.cpi                               0.981610                       # CPI: Cycles Per Instruction
system.cpu.cpi_total                         0.981610                       # CPI: Total CPI of All Threads
system.cpu.dcache.prefetcher.num_hwpf_issued         8175                       # number of hwpf issued
system.cpu.dcache.prefetcher.pfBufferHit        33335                       # number of redundant prefetches already in prefetch queue
system.cpu.dcache.prefetcher.pfIdentified        48349                       # number of prefetch candidates identified
system.cpu.dcache.prefetcher.pfInCache              0                       # number of redundant prefetches already in cache/mshr dropped
system.cpu.dcache.prefetcher.pfRemovedFull            0                       # number of prefetches dropped due to prefetch queue size
system.cpu.dcache.prefetcher.pfSpanPage          4187                       # number of prefetches that crossed the page
system.cpu.decode.BlockedCycles               1217491                       # Number of cycles decode is blocked
system.cpu.decode.DecodedInsts               14698612                       # Number of instructions handled by decode
system.cpu.decode.IdleCycles                  1221202                       # Number of cycles decode is idle
system.cpu.decode.RunCycles                   3946124                       # Number of cycles decode is running
system.cpu.decode.SquashCycles                  55422                       # Number of cycles decode is squashing
system.cpu.decode.UnblockCycles                132500                       # Number of cycles decode is unblocking
system.cpu.dtb.rdAccesses                     1722718                       # TLB accesses on read requests
system.cpu.dtb.rdMisses                          2056                       # TLB misses on read requests
system.cpu.dtb.wrAccesses                      917308                       # TLB accesses on write requests
system.cpu.dtb.wrMisses                           172                       # TLB misses on write requests
system.cpu.fetch.Branches                     1580538                       # Number of branches that fetch encountered
system.cpu.fetch.CacheLines                   1117599                       # Number of cache lines fetched
system.cpu.fetch.Cycles                       5273766                       # Number of cycles fetch has run and was not squashing or blocked
system.cpu.fetch.IcacheSquashes                 10597                       # Number of outstanding Icache misses that were squashed
system.cpu.fetch.Insts                        8155963                       # Number of instructions fetch has processed
system.cpu.fetch.MiscStallCycles                  171                       # Number of cycles fetch has spent waiting on interrupts, or bad addresses, or out of MSHRs
system.cpu.fetch.PendingQuiesceStallCycles            6                       # Number of stall cycles due to pending quiesce instructions
system.cpu.fetch.PendingTrapStallCycles           824                       # Number of stall cycles due to pending traps
system.cpu.fetch.SquashCycles                  110844                       # Number of cycles fetch has spent squashing
system.cpu.fetch.branchRate                  0.234604                       # Number of branch fetches per cycle
system.cpu.fetch.icacheStallCycles            1242550                       # Number of cycles fetch is stalled on an Icache miss
system.cpu.fetch.predictedBranches             819092                       # Number of branches that fetch has predicted taken
system.cpu.fetch.rate                        1.210614                       # Number of inst fetches per cycle
system.cpu.fetch.rateDist::samples            6572739                       # Number of instructions fetched each cycle (Total)
system.cpu.fetch.rateDist::mean              2.293134                       # Number of instructions fetched each cycle (Total)
system.cpu.fetch.rateDist::stdev             1.866175                       # Number of instructions fetched each cycle (Total)
system.cpu.fetch.rateDist::underflows               0      0.00%      0.00% # Number of instructions fetched each cycle (Total)
system.cpu.fetch.rateDist::0                  2324804     35.37%     35.37% # Number of instructions fetched each cycle (Total)
system.cpu.fetch.rateDist::1                   422752      6.43%     41.80% # Number of instructions fetched each cycle (Total)
system.cpu.fetch.rateDist::2                   193147      2.94%     44.74% # Number of instructions fetched each cycle (Total)
system.cpu.fetch.rateDist::3                   265022      4.03%     48.77% # Number of instructions fetched each cycle (Total)
system.cpu.fetch.rateDist::4                  3367014     51.23%    100.00% # Number of instructions fetched each cycle (Total)
system.cpu.fetch.rateDist::overflows                0      0.00%    100.00% # Number of instructions fetched each cycle (Total)
system.cpu.fetch.rateDist::min_value                0                       # Number of instructions fetched each cycle (Total)
system.cpu.fetch.rateDist::max_value                4                       # Number of instructions fetched each cycle (Total)
system.cpu.fetch.rateDist::total              6572739                       # Number of instructions fetched each cycle (Total)
system.cpu.fp_regfile_reads                    634253                       # number of floating regfile reads
system.cpu.fp_regfile_writes                   333514                       # number of floating regfile writes
system.cpu.fuPool.fu_ticks_busy::IntALU(0)    706892800                       # Total ticks fu was busy
system.cpu.fuPool.fu_ticks_busy::IntALU(1)    706892800                       # Total ticks fu was busy
system.cpu.fuPool.fu_ticks_busy::IntALU(2)    706892800                       # Total ticks fu was busy
system.cpu.fuPool.fu_ticks_busy::IntALU(3)    706892800                       # Total ticks fu was busy
system.cpu.fuPool.fu_ticks_busy::IntALU(4)    706892400                       # Total ticks fu was busy
system.cpu.fuPool.fu_ticks_busy::IntALU(5)    706892400                       # Total ticks fu was busy
system.cpu.fuPool.fu_ticks_busy::IntMultDiv(0)     19399600                       # Total ticks fu was busy
system.cpu.fuPool.fu_ticks_busy::IntMultDiv(1)     19399200                       # Total ticks fu was busy
system.cpu.fuPool.fu_ticks_busy::FP_ALU(0)      1800000                       # Total ticks fu was busy
system.cpu.fuPool.fu_ticks_busy::FP_ALU(1)      1799600                       # Total ticks fu was busy
system.cpu.fuPool.fu_ticks_busy::FP_ALU(2)      1799600                       # Total ticks fu was busy
system.cpu.fuPool.fu_ticks_busy::FP_ALU(3)      1799600                       # Total ticks fu was busy
system.cpu.fuPool.fu_ticks_busy::FP_MultDiv(0)            0                       # Total ticks fu was busy
system.cpu.fuPool.fu_ticks_busy::FP_MultDiv(1)            0                       # Total ticks fu was busy
system.cpu.fuPool.fu_ticks_busy::SIMD_Unit(0)     25865200                       # Total ticks fu was busy
system.cpu.fuPool.fu_ticks_busy::SIMD_Unit(1)     25783200                       # Total ticks fu was busy
system.cpu.fuPool.fu_ticks_busy::SIMD_Unit(2)     25359600                       # Total ticks fu was busy
system.cpu.fuPool.fu_ticks_busy::SIMD_Unit(3)     24892400                       # Total ticks fu was busy
system.cpu.fuPool.fu_ticks_busy::PredALU(0)            0                       # Total ticks fu was busy
system.cpu.fuPool.fu_ticks_busy::RdWrPort(0)    267514400                       # Total ticks fu was busy
system.cpu.fuPool.fu_ticks_busy::RdWrPort(1)    267581600                       # Total ticks fu was busy
system.cpu.fuPool.fu_ticks_busy::RdWrPort(2)    267460000                       # Total ticks fu was busy
system.cpu.fuPool.fu_ticks_busy::RdWrPort(3)    267610400                       # Total ticks fu was busy
system.cpu.fuPool.fu_ticks_busy::IprPort(0)            0                       # Total ticks fu was busy
system.cpu.fuPool.fu_ticks_busy::total     5459420400                       # Total ticks fu was busy
system.cpu.icache.prefetcher.num_hwpf_issued            0                       # number of hwpf issued
system.cpu.icache.prefetcher.pfBufferHit            0                       # number of redundant prefetches already in prefetch queue
system.cpu.icache.prefetcher.pfIdentified            0                       # number of prefetch candidates identified
system.cpu.icache.prefetcher.pfInCache              0                       # number of redundant prefetches already in cache/mshr dropped
system.cpu.icache.prefetcher.pfRemovedFull            0                       # number of prefetches dropped due to prefetch queue size
system.cpu.icache.prefetcher.pfSpanPage             0                       # number of prefetches that crossed the page
system.cpu.idleCycles                          164308                       # Total number of cycles that the CPU has spent unscheduled due to idling
system.cpu.iew.branchMispredicts                67336                       # Number of branch mispredicts detected at execute
system.cpu.iew.exec_branches                  1374064                       # Number of branches executed
system.cpu.iew.exec_nop                             0                       # number of nop insts executed
system.cpu.iew.exec_rate                     2.022370                       # Inst execution rate
system.cpu.iew.exec_refs                      2639858                       # number of memory reference insts executed
system.cpu.iew.exec_stores                     915287                       # Number of stores executed
system.cpu.iew.exec_swp                             0                       # number of swp insts executed
system.cpu.iew.iewBlockCycles                  836441                       # Number of cycles IEW is blocking
system.cpu.iew.iewDispLoadInsts               1796771                       # Number of dispatched load instructions
system.cpu.iew.iewDispNonSpecInsts               1906                       # Number of dispatched non-speculative instructions
system.cpu.iew.iewDispSquashedInsts              1963                       # Number of squashed instructions skipped by dispatch
system.cpu.iew.iewDispStoreInsts               959267                       # Number of dispatched store instructions
system.cpu.iew.iewDispatchedInsts            14250344                       # Number of instructions dispatched to IQ
system.cpu.iew.iewExecLoadInsts               1724571                       # Number of load instructions executed
system.cpu.iew.iewExecSquashedInsts             86817                       # Number of squashed instructions skipped in execute
system.cpu.iew.iewExecutedInsts              13624799                       # Number of executed instructions
system.cpu.iew.iewIQFullEvents                   3312                       # Number of times the IQ has become full, causing a stall
system.cpu.iew.iewIdleCycles                        0                       # Number of cycles IEW is idle
system.cpu.iew.iewLSQFullEvents                  9026                       # Number of times the LSQ has become full, causing a stall
system.cpu.iew.iewSquashCycles                  55422                       # Number of cycles IEW is squashing
system.cpu.iew.iewUnblockCycles                 15269                       # Number of cycles IEW is unblocking
system.cpu.iew.lsq.thread0.blockedLoads             0                       # Number of blocked loads due to partial load-store forwarding
system.cpu.iew.lsq.thread0.cacheBlocked           633                       # Number of times an access to memory failed due to the cache being blocked
system.cpu.iew.lsq.thread0.forwLoads            93928                       # Number of loads that had data forwarded from stores
system.cpu.iew.lsq.thread0.ignoredResponses          266                       # Number of memory responses ignored because the instruction is squashed
system.cpu.iew.lsq.thread0.invAddrLoads             0                       # Number of loads ignored due to an invalid address
system.cpu.iew.lsq.thread0.invAddrSwpfs             0                       # Number of software prefetches ignored due to an invalid address
system.cpu.iew.lsq.thread0.memOrderViolation          131                       # Number of memory ordering violations
system.cpu.iew.lsq.thread0.rescheduledLoads           79                       # Number of loads that were rescheduled
system.cpu.iew.lsq.thread0.squashedLoads       219490                       # Number of loads squashed
system.cpu.iew.lsq.thread0.squashedStores        76464                       # Number of stores squashed
system.cpu.iew.memOrderViolationEvents            131                       # Number of memory order violations
system.cpu.iew.predictedNotTakenIncorrect        51931                       # Number of branches that were predicted not taken incorrectly
system.cpu.iew.predictedTakenIncorrect          15405                       # Number of branches that were predicted taken incorrectly
system.cpu.iew.wb_consumers                  16622164                       # num instructions consuming a value
system.cpu.iew.wb_count                      13585349                       # cumulative count of insts written-back
system.cpu.iew.wb_fanout                     0.602638                       # average fanout of values written-back
system.cpu.iew.wb_producers                  10017145                       # num instructions producing a value
system.cpu.iew.wb_rate                       2.016514                       # insts written-back per cycle
system.cpu.iew.wb_sent                       13598896                       # cumulative count of insts sent to commit
system.cpu.int_regfile_reads                 20659061                       # number of integer regfile reads
system.cpu.int_regfile_writes                11074899                       # number of integer regfile writes
system.cpu.ipc                               1.018734                       # IPC: Instructions Per Cycle
system.cpu.ipc_total                         1.018734                       # IPC: Total IPC of All Threads
system.cpu.iq.FU_type_0::No_OpClass             63065      0.46%      0.46% # Type of FU issued
system.cpu.iq.FU_type_0::IntAlu              10603391     77.33%     77.79% # Type of FU issued
system.cpu.iq.FU_type_0::IntMult                55465      0.40%     78.20% # Type of FU issued
system.cpu.iq.FU_type_0::IntDiv                 41532      0.30%     78.50% # Type of FU issued
system.cpu.iq.FU_type_0::FloatAdd               16753      0.12%     78.62% # Type of FU issued
system.cpu.iq.FU_type_0::FloatCmp                   0      0.00%     78.62% # Type of FU issued
system.cpu.iq.FU_type_0::FloatCvt                1244      0.01%     78.63% # Type of FU issued
system.cpu.iq.FU_type_0::FloatMult                  0      0.00%     78.63% # Type of FU issued
system.cpu.iq.FU_type_0::FloatMultAcc               0      0.00%     78.63% # Type of FU issued
system.cpu.iq.FU_type_0::FloatDiv                   0      0.00%     78.63% # Type of FU issued
system.cpu.iq.FU_type_0::FloatMisc                  0      0.00%     78.63% # Type of FU issued
system.cpu.iq.FU_type_0::FloatSqrt                  0      0.00%     78.63% # Type of FU issued
system.cpu.iq.FU_type_0::SimdAdd                 6999      0.05%     78.68% # Type of FU issued
system.cpu.iq.FU_type_0::SimdAddAcc                 0      0.00%     78.68% # Type of FU issued
system.cpu.iq.FU_type_0::SimdAlu                64329      0.47%     79.15% # Type of FU issued
system.cpu.iq.FU_type_0::SimdCmp                    0      0.00%     79.15% # Type of FU issued
system.cpu.iq.FU_type_0::SimdCvt                63355      0.46%     79.61% # Type of FU issued
system.cpu.iq.FU_type_0::SimdMisc              117812      0.86%     80.47% # Type of FU issued
system.cpu.iq.FU_type_0::SimdMult                   0      0.00%     80.47% # Type of FU issued
system.cpu.iq.FU_type_0::SimdMultAcc                0      0.00%     80.47% # Type of FU issued
system.cpu.iq.FU_type_0::SimdShift               2256      0.02%     80.49% # Type of FU issued
system.cpu.iq.FU_type_0::SimdShiftAcc               0      0.00%     80.49% # Type of FU issued
system.cpu.iq.FU_type_0::SimdDiv                    0      0.00%     80.49% # Type of FU issued
system.cpu.iq.FU_type_0::SimdSqrt                   0      0.00%     80.49% # Type of FU issued
system.cpu.iq.FU_type_0::SimdFloatAdd               0      0.00%     80.49% # Type of FU issued
system.cpu.iq.FU_type_0::SimdFloatAlu               0      0.00%     80.49% # Type of FU issued
system.cpu.iq.FU_type_0::SimdFloatCmp               0      0.00%     80.49% # Type of FU issued
system.cpu.iq.FU_type_0::SimdFloatCvt               0      0.00%     80.49% # Type of FU issued
system.cpu.iq.FU_type_0::SimdFloatDiv               0      0.00%     80.49% # Type of FU issued
system.cpu.iq.FU_type_0::SimdFloatMisc              0      0.00%     80.49% # Type of FU issued
system.cpu.iq.FU_type_0::SimdFloatMult              0      0.00%     80.49% # Type of FU issued
system.cpu.iq.FU_type_0::SimdFloatMultAcc            0      0.00%     80.49% # Type of FU issued
system.cpu.iq.FU_type_0::SimdFloatSqrt              0      0.00%     80.49% # Type of FU issued
system.cpu.iq.FU_type_0::SimdReduceAdd              0      0.00%     80.49% # Type of FU issued
system.cpu.iq.FU_type_0::SimdReduceAlu              0      0.00%     80.49% # Type of FU issued
system.cpu.iq.FU_type_0::SimdReduceCmp              0      0.00%     80.49% # Type of FU issued
system.cpu.iq.FU_type_0::SimdFloatReduceAdd            0      0.00%     80.49% # Type of FU issued
system.cpu.iq.FU_type_0::SimdFloatReduceCmp            0      0.00%     80.49% # Type of FU issued
system.cpu.iq.FU_type_0::SimdAes                    0      0.00%     80.49% # Type of FU issued
system.cpu.iq.FU_type_0::SimdAesMix                 0      0.00%     80.49% # Type of FU issued
system.cpu.iq.FU_type_0::SimdSha1Hash               0      0.00%     80.49% # Type of FU issued
system.cpu.iq.FU_type_0::SimdSha1Hash2              0      0.00%     80.49% # Type of FU issued
system.cpu.iq.FU_type_0::SimdSha256Hash             0      0.00%     80.49% # Type of FU issued
system.cpu.iq.FU_type_0::SimdSha256Hash2            0      0.00%     80.49% # Type of FU issued
system.cpu.iq.FU_type_0::SimdShaSigma2              0      0.00%     80.49% # Type of FU issued
system.cpu.iq.FU_type_0::SimdShaSigma3              0      0.00%     80.49% # Type of FU issued
system.cpu.iq.FU_type_0::SimdPredAlu                0      0.00%     80.49% # Type of FU issued
system.cpu.iq.FU_type_0::MemRead              1693575     12.35%     92.84% # Type of FU issued
system.cpu.iq.FU_type_0::MemWrite              901448      6.57%     99.41% # Type of FU issued
system.cpu.iq.FU_type_0::FloatMemRead           58605      0.43%     99.84% # Type of FU issued
system.cpu.iq.FU_type_0::FloatMemWrite          21790      0.16%    100.00% # Type of FU issued
system.cpu.iq.FU_type_0::IprAccess                  0      0.00%    100.00% # Type of FU issued
system.cpu.iq.FU_type_0::InstPrefetch               0      0.00%    100.00% # Type of FU issued
system.cpu.iq.FU_type_0::total               13711619                       # Type of FU issued
system.cpu.iq.fp_alu_accesses                  391010                       # Number of floating point alu accesses
system.cpu.iq.fp_inst_queue_reads              783377                       # Number of floating instruction queue reads
system.cpu.iq.fp_inst_queue_wakeup_accesses       387261                       # Number of floating instruction queue wakeup accesses
system.cpu.iq.fp_inst_queue_writes             435327                       # Number of floating instruction queue writes
system.cpu.iq.fu_busy_cnt                           0                       # FU busy when requested
system.cpu.iq.fu_busy_rate                          0                       # FU busy rate (busy events/executed inst)
system.cpu.iq.fu_full::No_OpClass                   0                       # attempts to use FU when none available
system.cpu.iq.fu_full::IntAlu                       0                       # attempts to use FU when none available
system.cpu.iq.fu_full::IntMult                      0                       # attempts to use FU when none available
system.cpu.iq.fu_full::IntDiv                       0                       # attempts to use FU when none available
system.cpu.iq.fu_full::FloatAdd                     0                       # attempts to use FU when none available
system.cpu.iq.fu_full::FloatCmp                     0                       # attempts to use FU when none available
system.cpu.iq.fu_full::FloatCvt                     0                       # attempts to use FU when none available
system.cpu.iq.fu_full::FloatMult                    0                       # attempts to use FU when none available
system.cpu.iq.fu_full::FloatMultAcc                 0                       # attempts to use FU when none available
system.cpu.iq.fu_full::FloatDiv                     0                       # attempts to use FU when none available
system.cpu.iq.fu_full::FloatMisc                    0                       # attempts to use FU when none available
system.cpu.iq.fu_full::FloatSqrt                    0                       # attempts to use FU when none available
system.cpu.iq.fu_full::SimdAdd                      0                       # attempts to use FU when none available
system.cpu.iq.fu_full::SimdAddAcc                   0                       # attempts to use FU when none available
system.cpu.iq.fu_full::SimdAlu                      0                       # attempts to use FU when none available
system.cpu.iq.fu_full::SimdCmp                      0                       # attempts to use FU when none available
system.cpu.iq.fu_full::SimdCvt                      0                       # attempts to use FU when none available
system.cpu.iq.fu_full::SimdMisc                     0                       # attempts to use FU when none available
system.cpu.iq.fu_full::SimdMult                     0                       # attempts to use FU when none available
system.cpu.iq.fu_full::SimdMultAcc                  0                       # attempts to use FU when none available
system.cpu.iq.fu_full::SimdShift                    0                       # attempts to use FU when none available
system.cpu.iq.fu_full::SimdShiftAcc                 0                       # attempts to use FU when none available
system.cpu.iq.fu_full::SimdDiv                      0                       # attempts to use FU when none available
system.cpu.iq.fu_full::SimdSqrt                     0                       # attempts to use FU when none available
system.cpu.iq.fu_full::SimdFloatAdd                 0                       # attempts to use FU when none available
system.cpu.iq.fu_full::SimdFloatAlu                 0                       # attempts to use FU when none available
system.cpu.iq.fu_full::SimdFloatCmp                 0                       # attempts to use FU when none available
system.cpu.iq.fu_full::SimdFloatCvt                 0                       # attempts to use FU when none available
system.cpu.iq.fu_full::SimdFloatDiv                 0                       # attempts to use FU when none available
system.cpu.iq.fu_full::SimdFloatMisc                0                       # attempts to use FU when none available
system.cpu.iq.fu_full::SimdFloatMult                0                       # attempts to use FU when none available
system.cpu.iq.fu_full::SimdFloatMultAcc             0                       # attempts to use FU when none available
system.cpu.iq.fu_full::SimdFloatSqrt                0                       # attempts to use FU when none available
system.cpu.iq.fu_full::SimdReduceAdd                0                       # attempts to use FU when none available
system.cpu.iq.fu_full::SimdReduceAlu                0                       # attempts to use FU when none available
system.cpu.iq.fu_full::SimdReduceCmp                0                       # attempts to use FU when none available
system.cpu.iq.fu_full::SimdFloatReduceAdd            0                       # attempts to use FU when none available
system.cpu.iq.fu_full::SimdFloatReduceCmp            0                       # attempts to use FU when none available
system.cpu.iq.fu_full::SimdAes                      0                       # attempts to use FU when none available
system.cpu.iq.fu_full::SimdAesMix                   0                       # attempts to use FU when none available
system.cpu.iq.fu_full::SimdSha1Hash                 0                       # attempts to use FU when none available
system.cpu.iq.fu_full::SimdSha1Hash2                0                       # attempts to use FU when none available
system.cpu.iq.fu_full::SimdSha256Hash               0                       # attempts to use FU when none available
system.cpu.iq.fu_full::SimdSha256Hash2              0                       # attempts to use FU when none available
system.cpu.iq.fu_full::SimdShaSigma2                0                       # attempts to use FU when none available
system.cpu.iq.fu_full::SimdShaSigma3                0                       # attempts to use FU when none available
system.cpu.iq.fu_full::SimdPredAlu                  0                       # attempts to use FU when none available
system.cpu.iq.fu_full::MemRead                      0                       # attempts to use FU when none available
system.cpu.iq.fu_full::MemWrite                     0                       # attempts to use FU when none available
system.cpu.iq.fu_full::FloatMemRead                 0                       # attempts to use FU when none available
system.cpu.iq.fu_full::FloatMemWrite                0                       # attempts to use FU when none available
system.cpu.iq.fu_full::IprAccess                    0                       # attempts to use FU when none available
system.cpu.iq.fu_full::InstPrefetch                 0                       # attempts to use FU when none available
system.cpu.iq.int_alu_accesses               13257544                       # Number of integer alu accesses
system.cpu.iq.int_inst_queue_reads           33250312                       # Number of integer instruction queue reads
system.cpu.iq.int_inst_queue_wakeup_accesses     13198088                       # Number of integer instruction queue wakeup accesses
system.cpu.iq.int_inst_queue_writes          15335105                       # Number of integer instruction queue writes
system.cpu.iq.iqInstsAdded                   14248177                       # Number of instructions added to the IQ (excludes non-spec)
system.cpu.iq.iqInstsIssued                  13711619                       # Number of instructions issued
system.cpu.iq.iqNonSpecInstsAdded                2167                       # Number of non-speculative instructions added to the IQ
system.cpu.iq.iqSquashedInstsExamined         1519959                       # Number of squashed instructions iterated over during squash; mainly for profiling
system.cpu.iq.iqSquashedInstsIssued             37715                       # Number of squashed instructions issued
system.cpu.iq.iqSquashedNonSpecRemoved           1413                       # Number of squashed non-spec instructions that were removed
system.cpu.iq.iqSquashedOperandsExamined      2258999                       # Number of squashed operands that are examined and possibly removed from graph
system.cpu.iq.issued_per_cycle::samples       6572739                       # Number of insts issued each cycle
system.cpu.iq.issued_per_cycle::mean         2.086135                       # Number of insts issued each cycle
system.cpu.iq.issued_per_cycle::stdev        1.561810                       # Number of insts issued each cycle
system.cpu.iq.issued_per_cycle::underflows            0      0.00%      0.00% # Number of insts issued each cycle
system.cpu.iq.issued_per_cycle::0             1737747     26.44%     26.44% # Number of insts issued each cycle
system.cpu.iq.issued_per_cycle::1              767222     11.67%     38.11% # Number of insts issued each cycle
system.cpu.iq.issued_per_cycle::2             1036042     15.76%     53.87% # Number of insts issued each cycle
system.cpu.iq.issued_per_cycle::3             1254599     19.09%     72.96% # Number of insts issued each cycle
system.cpu.iq.issued_per_cycle::4             1777129     27.04%    100.00% # Number of insts issued each cycle
system.cpu.iq.issued_per_cycle::overflows            0      0.00%    100.00% # Number of insts issued each cycle
system.cpu.iq.issued_per_cycle::min_value            0                       # Number of insts issued each cycle
system.cpu.iq.issued_per_cycle::max_value            4                       # Number of insts issued each cycle
system.cpu.iq.issued_per_cycle::total         6572739                       # Number of insts issued each cycle
system.cpu.iq.rate                           2.035257                       # Inst issue rate
system.cpu.iq.vec_alu_accesses                      0                       # Number of vector alu accesses
system.cpu.iq.vec_inst_queue_reads                  0                       # Number of vector instruction queue reads
system.cpu.iq.vec_inst_queue_wakeup_accesses            0                       # Number of vector instruction queue wakeup accesses
system.cpu.iq.vec_inst_queue_writes                 0                       # Number of vector instruction queue writes
system.cpu.itb.rdAccesses                           0                       # TLB accesses on read requests
system.cpu.itb.rdMisses                             0                       # TLB misses on read requests
system.cpu.itb.wrAccesses                     1117742                       # TLB accesses on write requests
system.cpu.itb.wrMisses                           396                       # TLB misses on write requests
system.cpu.memDep0.conflictingLoads             62332                       # Number of conflicting loads.
system.cpu.memDep0.conflictingStores            15022                       # Number of conflicting stores.
system.cpu.memDep0.insertedLoads              1796771                       # Number of loads inserted to the mem dependence unit.
system.cpu.memDep0.insertedStores              959267                       # Number of stores inserted to the mem dependence unit.
system.cpu.misc_regfile_reads                 5479222                       # number of misc regfile reads
system.cpu.misc_regfile_writes                    684                       # number of misc regfile writes
system.cpu.numCycles                          6737047                       # number of cpu cycles simulated
system.cpu.numWorkItemsCompleted                    0                       # number of work items this cpu completed
system.cpu.numWorkItemsStarted                      0                       # number of work items this cpu started
system.cpu.process.numSyscalls                     69                       # Number of system calls
system.cpu.rename.BlockCycles                  991211                       # Number of cycles rename is blocking
system.cpu.rename.CommittedMaps              15542451                       # Number of HB maps that are committed
system.cpu.rename.FullRegisterEvents              166                       # Number of times there has been no free registers
system.cpu.rename.IQFullEvents                  69354                       # Number of times rename has blocked due to IQ full
system.cpu.rename.IdleCycles                  1306320                       # Number of cycles rename is idle
system.cpu.rename.LQFullEvents                  16271                       # Number of times rename has blocked due to LQ full
system.cpu.rename.ROBFullEvents                  4471                       # Number of times rename has blocked due to ROB full
system.cpu.rename.RenameLookups              37417803                       # Number of register rename lookups that rename has made
system.cpu.rename.RenamedInsts               14544923                       # Number of instructions processed by rename
system.cpu.rename.RenamedOperands            17807746                       # Number of destination operands rename has renamed
system.cpu.rename.RunCycles                   3979478                       # Number of cycles rename is running
system.cpu.rename.SQFullEvents                  79512                       # Number of times rename has blocked due to SQ full
system.cpu.rename.SquashCycles                  55422                       # Number of cycles rename is squashing
system.cpu.rename.UnblockCycles                217776                       # Number of cycles rename is unblocking
system.cpu.rename.UndoneMaps                  2265272                       # Number of HB maps that are undone due to squashing
system.cpu.rename.fp_rename_lookups            671733                       # Number of floating rename lookups
system.cpu.rename.int_rename_lookups         22340269                       # Number of integer rename lookups
system.cpu.rename.serializeStallCycles          22532                       # count of cycles rename stalled for serializing inst
system.cpu.rename.serializingInsts               1812                       # count of serializing insts renamed
system.cpu.rename.skidInsts                    287067                       # count of insts added to the skid buffer
system.cpu.rename.tempSerializingInsts           1863                       # count of temporary serializing insts renamed
system.cpu.rob.rob_reads                     18384618                       # The number of ROB reads
system.cpu.rob.rob_writes                    28914670                       # The number of ROB writes
system.cpu.timesIdled                            1969                       # Number of times that the entire CPU went into an idle state and unscheduled itself
system.l2bus.snoop_filter.hit_multi_requests           13                       # Number of requests hitting in the snoop filter with multiple (>1) holders of the requested data.
system.l2bus.snoop_filter.hit_multi_snoops            0                       # Number of snoops hitting in the snoop filter with multiple (>1) holders of the requested data.
system.l2bus.snoop_filter.hit_single_requests        19727                       # Number of requests hitting in the snoop filter with a single holder of the requested data.
system.l2bus.snoop_filter.hit_single_snoops          466                       # Number of snoops hitting in the snoop filter with a single holder of the requested data.
system.l2bus.snoop_filter.tot_requests          40734                       # Total number of requests made to the snoop filter.
system.l2bus.snoop_filter.tot_snoops              466                       # Total number of snoops made to the snoop filter.
system.l2cache.prefetcher.num_hwpf_issued          853                       # number of hwpf issued
system.l2cache.prefetcher.pfBufferHit               0                       # number of redundant prefetches already in prefetch queue
system.l2cache.prefetcher.pfIdentified            853                       # number of prefetch candidates identified
system.l2cache.prefetcher.pfInCache                 0                       # number of redundant prefetches already in cache/mshr dropped
system.l2cache.prefetcher.pfRemovedFull             0                       # number of prefetches dropped due to prefetch queue size
system.l2cache.prefetcher.pfSpanPage              151                       # number of prefetches that crossed the page
system.membus.snoop_filter.hit_multi_requests            0                       # Number of requests hitting in the snoop filter with multiple (>1) holders of the requested data.
system.membus.snoop_filter.hit_multi_snoops            0                       # Number of snoops hitting in the snoop filter with multiple (>1) holders of the requested data.
system.membus.snoop_filter.hit_single_requests         9867                       # Number of requests hitting in the snoop filter with a single holder of the requested data.
system.membus.snoop_filter.hit_single_snoops            0                       # Number of snoops hitting in the snoop filter with a single holder of the requested data.
system.membus.snoop_filter.tot_requests         23861                       # Total number of requests made to the snoop filter.
system.membus.snoop_filter.tot_snoops               0                       # Total number of snoops made to the snoop filter.
system.membus.pwrStateResidencyTicks::UNDEFINED   2694818400                       # Cumulative time (in ticks) in various power states
system.membus.trans_dist::ReadResp              12414                       # Transaction distribution
system.membus.trans_dist::WritebackDirty         1361                       # Transaction distribution
system.membus.trans_dist::CleanEvict             8506                       # Transaction distribution
system.membus.trans_dist::ReadExReq              1580                       # Transaction distribution
system.membus.trans_dist::ReadExResp             1580                       # Transaction distribution
system.membus.trans_dist::ReadSharedReq         12414                       # Transaction distribution
system.membus.pkt_count_system.l2cache.mem_side::system.mem_ctrl.port        37855                       # Packet count per connected master and slave (bytes)
system.membus.pkt_count_system.l2cache.mem_side::total        37855                       # Packet count per connected master and slave (bytes)
system.membus.pkt_count::total                  37855                       # Packet count per connected master and slave (bytes)
system.membus.pkt_size_system.l2cache.mem_side::system.mem_ctrl.port       982720                       # Cumulative packet size per connected master and slave (bytes)
system.membus.pkt_size_system.l2cache.mem_side::total       982720                       # Cumulative packet size per connected master and slave (bytes)
system.membus.pkt_size::total                  982720                       # Cumulative packet size per connected master and slave (bytes)
system.membus.snoops                                0                       # Total snoops (count)
system.membus.snoopTraffic                          0                       # Total snoop traffic (bytes)
system.membus.snoop_fanout::samples             13994                       # Request fanout histogram
system.membus.snoop_fanout::mean                    0                       # Request fanout histogram
system.membus.snoop_fanout::stdev                   0                       # Request fanout histogram
system.membus.snoop_fanout::underflows              0      0.00%      0.00% # Request fanout histogram
system.membus.snoop_fanout::0                   13994    100.00%    100.00% # Request fanout histogram
system.membus.snoop_fanout::1                       0      0.00%    100.00% # Request fanout histogram
system.membus.snoop_fanout::overflows               0      0.00%    100.00% # Request fanout histogram
system.membus.snoop_fanout::min_value               0                       # Request fanout histogram
system.membus.snoop_fanout::max_value               0                       # Request fanout histogram
system.membus.snoop_fanout::total               13994                       # Request fanout histogram
system.membus.reqLayer2.occupancy            11760615                       # Layer occupancy (ticks)
system.membus.reqLayer2.utilization               0.4                       # Layer utilization (%)
system.membus.respLayer0.occupancy           30375985                       # Layer occupancy (ticks)
system.membus.respLayer0.utilization              1.1                       # Layer utilization (%)
system.l2bus.pwrStateResidencyTicks::UNDEFINED   2694818400                       # Cumulative time (in ticks) in various power states
system.l2bus.trans_dist::ReadResp               18703                       # Transaction distribution
system.l2bus.trans_dist::WritebackDirty          4272                       # Transaction distribution
system.l2bus.trans_dist::CleanEvict             25413                       # Transaction distribution
system.l2bus.trans_dist::HardPFReq               1146                       # Transaction distribution
system.l2bus.trans_dist::ReadExReq               2304                       # Transaction distribution
system.l2bus.trans_dist::ReadExResp              2304                       # Transaction distribution
system.l2bus.trans_dist::ReadSharedReq          18703                       # Transaction distribution
system.l2bus.pkt_count_system.cpu.icache.mem_side::system.l2cache.cpu_side        10824                       # Packet count per connected master and slave (bytes)
system.l2bus.pkt_count_system.cpu.dcache.mem_side::system.l2cache.cpu_side        50912                       # Packet count per connected master and slave (bytes)
system.l2bus.pkt_count::total                   61736                       # Packet count per connected master and slave (bytes)
system.l2bus.pkt_size_system.cpu.icache.mem_side::system.l2cache.cpu_side       236480                       # Cumulative packet size per connected master and slave (bytes)
system.l2bus.pkt_size_system.cpu.dcache.mem_side::system.l2cache.cpu_side      1293952                       # Cumulative packet size per connected master and slave (bytes)
system.l2bus.pkt_size::total                  1530432                       # Cumulative packet size per connected master and slave (bytes)
system.l2bus.snoops                             11109                       # Total snoops (count)
system.l2bus.snoopTraffic                       87424                       # Total snoop traffic (bytes)
system.l2bus.snoop_fanout::samples              32111                       # Request fanout histogram
system.l2bus.snoop_fanout::mean              0.014917                       # Request fanout histogram
system.l2bus.snoop_fanout::stdev             0.121223                       # Request fanout histogram
system.l2bus.snoop_fanout::underflows               0      0.00%      0.00% # Request fanout histogram
system.l2bus.snoop_fanout::0                    31632     98.51%     98.51% # Request fanout histogram
system.l2bus.snoop_fanout::1                      479      1.49%    100.00% # Request fanout histogram
system.l2bus.snoop_fanout::2                        0      0.00%    100.00% # Request fanout histogram
system.l2bus.snoop_fanout::overflows                0      0.00%    100.00% # Request fanout histogram
system.l2bus.snoop_fanout::min_value                0                       # Request fanout histogram
system.l2bus.snoop_fanout::max_value                1                       # Request fanout histogram
system.l2bus.snoop_fanout::total                32111                       # Request fanout histogram
system.l2bus.respLayer1.occupancy            20777196                       # Layer occupancy (ticks)
system.l2bus.respLayer1.utilization               0.8                       # Layer utilization (%)
system.l2bus.reqLayer0.occupancy             20080604                       # Layer occupancy (ticks)
system.l2bus.reqLayer0.utilization                0.7                       # Layer utilization (%)
system.l2bus.respLayer0.occupancy             4433199                       # Layer occupancy (ticks)
system.l2bus.respLayer0.utilization               0.2                       # Layer utilization (%)
system.clk_domain.clock                           400                       # Clock period in ticks
system.clk_domain.voltage_domain.voltage            1                       # Voltage in Volts
system.cpu.pwrStateResidencyTicks::ON      2694818400                       # Cumulative time (in ticks) in various power states
system.cpu.icache.pwrStateResidencyTicks::UNDEFINED   2694818400                       # Cumulative time (in ticks) in various power states
system.cpu.icache.demand_hits::.cpu.inst      1113155                       # number of demand (read+write) hits
system.cpu.icache.demand_hits::total          1113155                       # number of demand (read+write) hits
system.cpu.icache.overall_hits::.cpu.inst      1113155                       # number of overall hits
system.cpu.icache.overall_hits::total         1113155                       # number of overall hits
system.cpu.icache.demand_misses::.cpu.inst         4443                       # number of demand (read+write) misses
system.cpu.icache.demand_misses::total           4443                       # number of demand (read+write) misses
system.cpu.icache.overall_misses::.cpu.inst         4443                       # number of overall misses
system.cpu.icache.overall_misses::total          4443                       # number of overall misses
system.cpu.icache.demand_miss_latency::.cpu.inst    191624800                       # number of demand (read+write) miss cycles
system.cpu.icache.demand_miss_latency::total    191624800                       # number of demand (read+write) miss cycles
system.cpu.icache.overall_miss_latency::.cpu.inst    191624800                       # number of overall miss cycles
system.cpu.icache.overall_miss_latency::total    191624800                       # number of overall miss cycles
system.cpu.icache.demand_accesses::.cpu.inst      1117598                       # number of demand (read+write) accesses
system.cpu.icache.demand_accesses::total      1117598                       # number of demand (read+write) accesses
system.cpu.icache.overall_accesses::.cpu.inst      1117598                       # number of overall (read+write) accesses
system.cpu.icache.overall_accesses::total      1117598                       # number of overall (read+write) accesses
system.cpu.icache.demand_miss_rate::.cpu.inst     0.003975                       # miss rate for demand accesses
system.cpu.icache.demand_miss_rate::total     0.003975                       # miss rate for demand accesses
system.cpu.icache.overall_miss_rate::.cpu.inst     0.003975                       # miss rate for overall accesses
system.cpu.icache.overall_miss_rate::total     0.003975                       # miss rate for overall accesses
system.cpu.icache.demand_avg_miss_latency::.cpu.inst 43129.597119                       # average overall miss latency
system.cpu.icache.demand_avg_miss_latency::total 43129.597119                       # average overall miss latency
system.cpu.icache.overall_avg_miss_latency::.cpu.inst 43129.597119                       # average overall miss latency
system.cpu.icache.overall_avg_miss_latency::total 43129.597119                       # average overall miss latency
system.cpu.icache.blocked_cycles::no_mshrs          236                       # number of cycles access was blocked
system.cpu.icache.blocked_cycles::no_targets            0                       # number of cycles access was blocked
system.cpu.icache.blocked::no_mshrs                 4                       # number of cycles access was blocked
system.cpu.icache.blocked::no_targets               0                       # number of cycles access was blocked
system.cpu.icache.avg_blocked_cycles::no_mshrs           59                       # average number of cycles each access was blocked
system.cpu.icache.avg_blocked_cycles::no_targets          nan                       # average number of cycles each access was blocked
system.cpu.icache.writebacks::.writebacks            3                       # number of writebacks
system.cpu.icache.writebacks::total                 3                       # number of writebacks
system.cpu.icache.demand_mshr_hits::.cpu.inst          749                       # number of demand (read+write) MSHR hits
system.cpu.icache.demand_mshr_hits::total          749                       # number of demand (read+write) MSHR hits
system.cpu.icache.overall_mshr_hits::.cpu.inst          749                       # number of overall MSHR hits
system.cpu.icache.overall_mshr_hits::total          749                       # number of overall MSHR hits
system.cpu.icache.demand_mshr_misses::.cpu.inst         3694                       # number of demand (read+write) MSHR misses
system.cpu.icache.demand_mshr_misses::total         3694                       # number of demand (read+write) MSHR misses
system.cpu.icache.overall_mshr_misses::.cpu.inst         3694                       # number of overall MSHR misses
system.cpu.icache.overall_mshr_misses::total         3694                       # number of overall MSHR misses
system.cpu.icache.demand_mshr_miss_latency::.cpu.inst    153659600                       # number of demand (read+write) MSHR miss cycles
system.cpu.icache.demand_mshr_miss_latency::total    153659600                       # number of demand (read+write) MSHR miss cycles
system.cpu.icache.overall_mshr_miss_latency::.cpu.inst    153659600                       # number of overall MSHR miss cycles
system.cpu.icache.overall_mshr_miss_latency::total    153659600                       # number of overall MSHR miss cycles
system.cpu.icache.demand_mshr_miss_rate::.cpu.inst     0.003305                       # mshr miss rate for demand accesses
system.cpu.icache.demand_mshr_miss_rate::total     0.003305                       # mshr miss rate for demand accesses
system.cpu.icache.overall_mshr_miss_rate::.cpu.inst     0.003305                       # mshr miss rate for overall accesses
system.cpu.icache.overall_mshr_miss_rate::total     0.003305                       # mshr miss rate for overall accesses
system.cpu.icache.demand_avg_mshr_miss_latency::.cpu.inst 41597.076340                       # average overall mshr miss latency
system.cpu.icache.demand_avg_mshr_miss_latency::total 41597.076340                       # average overall mshr miss latency
system.cpu.icache.overall_avg_mshr_miss_latency::.cpu.inst 41597.076340                       # average overall mshr miss latency
system.cpu.icache.overall_avg_mshr_miss_latency::total 41597.076340                       # average overall mshr miss latency
system.cpu.icache.replacements                   3438                       # number of replacements
system.cpu.icache.ReadReq_hits::.cpu.inst      1113155                       # number of ReadReq hits
system.cpu.icache.ReadReq_hits::total         1113155                       # number of ReadReq hits
system.cpu.icache.ReadReq_misses::.cpu.inst         4443                       # number of ReadReq misses
system.cpu.icache.ReadReq_misses::total          4443                       # number of ReadReq misses
system.cpu.icache.ReadReq_miss_latency::.cpu.inst    191624800                       # number of ReadReq miss cycles
system.cpu.icache.ReadReq_miss_latency::total    191624800                       # number of ReadReq miss cycles
system.cpu.icache.ReadReq_accesses::.cpu.inst      1117598                       # number of ReadReq accesses(hits+misses)
system.cpu.icache.ReadReq_accesses::total      1117598                       # number of ReadReq accesses(hits+misses)
system.cpu.icache.ReadReq_miss_rate::.cpu.inst     0.003975                       # miss rate for ReadReq accesses
system.cpu.icache.ReadReq_miss_rate::total     0.003975                       # miss rate for ReadReq accesses
system.cpu.icache.ReadReq_avg_miss_latency::.cpu.inst 43129.597119                       # average ReadReq miss latency
system.cpu.icache.ReadReq_avg_miss_latency::total 43129.597119                       # average ReadReq miss latency
system.cpu.icache.ReadReq_mshr_hits::.cpu.inst          749                       # number of ReadReq MSHR hits
system.cpu.icache.ReadReq_mshr_hits::total          749                       # number of ReadReq MSHR hits
system.cpu.icache.ReadReq_mshr_misses::.cpu.inst         3694                       # number of ReadReq MSHR misses
system.cpu.icache.ReadReq_mshr_misses::total         3694                       # number of ReadReq MSHR misses
system.cpu.icache.ReadReq_mshr_miss_latency::.cpu.inst    153659600                       # number of ReadReq MSHR miss cycles
system.cpu.icache.ReadReq_mshr_miss_latency::total    153659600                       # number of ReadReq MSHR miss cycles
system.cpu.icache.ReadReq_mshr_miss_rate::.cpu.inst     0.003305                       # mshr miss rate for ReadReq accesses
system.cpu.icache.ReadReq_mshr_miss_rate::total     0.003305                       # mshr miss rate for ReadReq accesses
system.cpu.icache.ReadReq_avg_mshr_miss_latency::.cpu.inst 41597.076340                       # average ReadReq mshr miss latency
system.cpu.icache.ReadReq_avg_mshr_miss_latency::total 41597.076340                       # average ReadReq mshr miss latency
system.cpu.icache.prefetcher.pwrStateResidencyTicks::UNDEFINED   2694818400                       # Cumulative time (in ticks) in various power states
system.cpu.icache.tags.pwrStateResidencyTicks::UNDEFINED   2694818400                       # Cumulative time (in ticks) in various power states
system.cpu.icache.tags.tagsinuse           254.737526                       # Cycle average of tags in use
system.cpu.icache.tags.total_refs              576977                       # Total number of references to valid blocks.
system.cpu.icache.tags.sampled_refs              3438                       # Sample count of references to valid blocks.
system.cpu.icache.tags.avg_refs            167.823444                       # Average number of references to valid blocks.
system.cpu.icache.tags.warmup_cycle             66400                       # Cycle when the warmup percentage was hit.
system.cpu.icache.tags.occ_blocks::.cpu.inst   254.737526                       # Average occupied blocks per requestor
system.cpu.icache.tags.occ_percent::.cpu.inst     0.995068                       # Average percentage of cache occupancy
system.cpu.icache.tags.occ_percent::total     0.995068                       # Average percentage of cache occupancy
system.cpu.icache.tags.occ_task_id_blocks::1024          256                       # Occupied blocks per task id
system.cpu.icache.tags.age_task_id_blocks_1024::0          103                       # Occupied blocks per task id
system.cpu.icache.tags.age_task_id_blocks_1024::1            1                       # Occupied blocks per task id
system.cpu.icache.tags.age_task_id_blocks_1024::2            2                       # Occupied blocks per task id
system.cpu.icache.tags.age_task_id_blocks_1024::3          150                       # Occupied blocks per task id
system.cpu.icache.tags.occ_task_id_percent::1024            1                       # Percentage of cache occupancy per task id
system.cpu.icache.tags.tag_accesses           2238890                       # Number of tag accesses
system.cpu.icache.tags.data_accesses          2238890                       # Number of data accesses
system.cpu.dtb.walker.pwrStateResidencyTicks::UNDEFINED   2694818400                       # Cumulative time (in ticks) in various power states
system.cpu.interrupts.clk_domain.clock           6400                       # Clock period in ticks
system.cpu.itb.walker.pwrStateResidencyTicks::UNDEFINED   2694818400                       # Cumulative time (in ticks) in various power states
system.cpu.dcache.pwrStateResidencyTicks::UNDEFINED   2694818400                       # Cumulative time (in ticks) in various power states
system.cpu.dcache.demand_hits::.cpu.data      2477130                       # number of demand (read+write) hits
system.cpu.dcache.demand_hits::total          2477130                       # number of demand (read+write) hits
system.cpu.dcache.overall_hits::.cpu.data      2477130                       # number of overall hits
system.cpu.dcache.overall_hits::total         2477130                       # number of overall hits
system.cpu.dcache.demand_misses::.cpu.data        35257                       # number of demand (read+write) misses
system.cpu.dcache.demand_misses::total          35257                       # number of demand (read+write) misses
system.cpu.dcache.overall_misses::.cpu.data        35257                       # number of overall misses
system.cpu.dcache.overall_misses::total         35257                       # number of overall misses
system.cpu.dcache.demand_miss_latency::.cpu.data   1709363598                       # number of demand (read+write) miss cycles
system.cpu.dcache.demand_miss_latency::total   1709363598                       # number of demand (read+write) miss cycles
system.cpu.dcache.overall_miss_latency::.cpu.data   1709363598                       # number of overall miss cycles
system.cpu.dcache.overall_miss_latency::total   1709363598                       # number of overall miss cycles
system.cpu.dcache.demand_accesses::.cpu.data      2512387                       # number of demand (read+write) accesses
system.cpu.dcache.demand_accesses::total      2512387                       # number of demand (read+write) accesses
system.cpu.dcache.overall_accesses::.cpu.data      2512387                       # number of overall (read+write) accesses
system.cpu.dcache.overall_accesses::total      2512387                       # number of overall (read+write) accesses
system.cpu.dcache.demand_miss_rate::.cpu.data     0.014033                       # miss rate for demand accesses
system.cpu.dcache.demand_miss_rate::total     0.014033                       # miss rate for demand accesses
system.cpu.dcache.overall_miss_rate::.cpu.data     0.014033                       # miss rate for overall accesses
system.cpu.dcache.overall_miss_rate::total     0.014033                       # miss rate for overall accesses
system.cpu.dcache.demand_avg_miss_latency::.cpu.data 48482.956519                       # average overall miss latency
system.cpu.dcache.demand_avg_miss_latency::total 48482.956519                       # average overall miss latency
system.cpu.dcache.overall_avg_miss_latency::.cpu.data 48482.956519                       # average overall miss latency
system.cpu.dcache.overall_avg_miss_latency::total 48482.956519                       # average overall miss latency
system.cpu.dcache.blocked_cycles::no_mshrs        30572                       # number of cycles access was blocked
system.cpu.dcache.blocked_cycles::no_targets          269                       # number of cycles access was blocked
system.cpu.dcache.blocked::no_mshrs               783                       # number of cycles access was blocked
system.cpu.dcache.blocked::no_targets               2                       # number of cycles access was blocked
system.cpu.dcache.avg_blocked_cycles::no_mshrs    39.044700                       # average number of cycles each access was blocked
system.cpu.dcache.avg_blocked_cycles::no_targets   134.500000                       # average number of cycles each access was blocked
system.cpu.dcache.unused_prefetches              1800                       # number of HardPF blocks evicted w/o reference
system.cpu.dcache.writebacks::.writebacks         2908                       # number of writebacks
system.cpu.dcache.writebacks::total              2908                       # number of writebacks
system.cpu.dcache.demand_mshr_hits::.cpu.data        22374                       # number of demand (read+write) MSHR hits
system.cpu.dcache.demand_mshr_hits::total        22374                       # number of demand (read+write) MSHR hits
system.cpu.dcache.overall_mshr_hits::.cpu.data        22374                       # number of overall MSHR hits
system.cpu.dcache.overall_mshr_hits::total        22374                       # number of overall MSHR hits
system.cpu.dcache.demand_mshr_misses::.cpu.data        12883                       # number of demand (read+write) MSHR misses
system.cpu.dcache.demand_mshr_misses::total        12883                       # number of demand (read+write) MSHR misses
system.cpu.dcache.overall_mshr_misses::.cpu.data        12883                       # number of overall MSHR misses
system.cpu.dcache.overall_mshr_misses::.cpu.dcache.prefetcher         4430                       # number of overall MSHR misses
system.cpu.dcache.overall_mshr_misses::total        17313                       # number of overall MSHR misses
system.cpu.dcache.demand_mshr_miss_latency::.cpu.data    596853998                       # number of demand (read+write) MSHR miss cycles
system.cpu.dcache.demand_mshr_miss_latency::total    596853998                       # number of demand (read+write) MSHR miss cycles
system.cpu.dcache.overall_mshr_miss_latency::.cpu.data    596853998                       # number of overall MSHR miss cycles
system.cpu.dcache.overall_mshr_miss_latency::.cpu.dcache.prefetcher    253974123                       # number of overall MSHR miss cycles
system.cpu.dcache.overall_mshr_miss_latency::total    850828121                       # number of overall MSHR miss cycles
system.cpu.dcache.demand_mshr_miss_rate::.cpu.data     0.005128                       # mshr miss rate for demand accesses
system.cpu.dcache.demand_mshr_miss_rate::total     0.005128                       # mshr miss rate for demand accesses
system.cpu.dcache.overall_mshr_miss_rate::.cpu.data     0.005128                       # mshr miss rate for overall accesses
system.cpu.dcache.overall_mshr_miss_rate::.cpu.dcache.prefetcher          inf                       # mshr miss rate for overall accesses
system.cpu.dcache.overall_mshr_miss_rate::total     0.006891                       # mshr miss rate for overall accesses
system.cpu.dcache.demand_avg_mshr_miss_latency::.cpu.data 46328.805247                       # average overall mshr miss latency
system.cpu.dcache.demand_avg_mshr_miss_latency::total 46328.805247                       # average overall mshr miss latency
system.cpu.dcache.overall_avg_mshr_miss_latency::.cpu.data 46328.805247                       # average overall mshr miss latency
system.cpu.dcache.overall_avg_mshr_miss_latency::.cpu.dcache.prefetcher 57330.501806                       # average overall mshr miss latency
system.cpu.dcache.overall_avg_mshr_miss_latency::total 49143.887310                       # average overall mshr miss latency
system.cpu.dcache.replacements                  16289                       # number of replacements
system.cpu.dcache.ReadReq_hits::.cpu.data      1594663                       # number of ReadReq hits
system.cpu.dcache.ReadReq_hits::total         1594663                       # number of ReadReq hits
system.cpu.dcache.ReadReq_misses::.cpu.data        32907                       # number of ReadReq misses
system.cpu.dcache.ReadReq_misses::total         32907                       # number of ReadReq misses
system.cpu.dcache.ReadReq_miss_latency::.cpu.data   1585882800                       # number of ReadReq miss cycles
system.cpu.dcache.ReadReq_miss_latency::total   1585882800                       # number of ReadReq miss cycles
system.cpu.dcache.ReadReq_accesses::.cpu.data      1627570                       # number of ReadReq accesses(hits+misses)
system.cpu.dcache.ReadReq_accesses::total      1627570                       # number of ReadReq accesses(hits+misses)
system.cpu.dcache.ReadReq_miss_rate::.cpu.data     0.020218                       # miss rate for ReadReq accesses
system.cpu.dcache.ReadReq_miss_rate::total     0.020218                       # miss rate for ReadReq accesses
system.cpu.dcache.ReadReq_avg_miss_latency::.cpu.data 48192.870818                       # average ReadReq miss latency
system.cpu.dcache.ReadReq_avg_miss_latency::total 48192.870818                       # average ReadReq miss latency
system.cpu.dcache.ReadReq_mshr_hits::.cpu.data        22328                       # number of ReadReq MSHR hits
system.cpu.dcache.ReadReq_mshr_hits::total        22328                       # number of ReadReq MSHR hits
system.cpu.dcache.ReadReq_mshr_misses::.cpu.data        10579                       # number of ReadReq MSHR misses
system.cpu.dcache.ReadReq_mshr_misses::total        10579                       # number of ReadReq MSHR misses
system.cpu.dcache.ReadReq_mshr_miss_latency::.cpu.data    477306400                       # number of ReadReq MSHR miss cycles
system.cpu.dcache.ReadReq_mshr_miss_latency::total    477306400                       # number of ReadReq MSHR miss cycles
system.cpu.dcache.ReadReq_mshr_miss_rate::.cpu.data     0.006500                       # mshr miss rate for ReadReq accesses
system.cpu.dcache.ReadReq_mshr_miss_rate::total     0.006500                       # mshr miss rate for ReadReq accesses
system.cpu.dcache.ReadReq_avg_mshr_miss_latency::.cpu.data 45118.290954                       # average ReadReq mshr miss latency
system.cpu.dcache.ReadReq_avg_mshr_miss_latency::total 45118.290954                       # average ReadReq mshr miss latency
system.cpu.dcache.WriteReq_hits::.cpu.data       882467                       # number of WriteReq hits
system.cpu.dcache.WriteReq_hits::total         882467                       # number of WriteReq hits
system.cpu.dcache.WriteReq_misses::.cpu.data         2350                       # number of WriteReq misses
system.cpu.dcache.WriteReq_misses::total         2350                       # number of WriteReq misses
system.cpu.dcache.WriteReq_miss_latency::.cpu.data    123480798                       # number of WriteReq miss cycles
system.cpu.dcache.WriteReq_miss_latency::total    123480798                       # number of WriteReq miss cycles
system.cpu.dcache.WriteReq_accesses::.cpu.data       884817                       # number of WriteReq accesses(hits+misses)
system.cpu.dcache.WriteReq_accesses::total       884817                       # number of WriteReq accesses(hits+misses)
system.cpu.dcache.WriteReq_miss_rate::.cpu.data     0.002656                       # miss rate for WriteReq accesses
system.cpu.dcache.WriteReq_miss_rate::total     0.002656                       # miss rate for WriteReq accesses
system.cpu.dcache.WriteReq_avg_miss_latency::.cpu.data 52545.020426                       # average WriteReq miss latency
system.cpu.dcache.WriteReq_avg_miss_latency::total 52545.020426                       # average WriteReq miss latency
system.cpu.dcache.WriteReq_mshr_hits::.cpu.data           46                       # number of WriteReq MSHR hits
system.cpu.dcache.WriteReq_mshr_hits::total           46                       # number of WriteReq MSHR hits
system.cpu.dcache.WriteReq_mshr_misses::.cpu.data         2304                       # number of WriteReq MSHR misses
[...]
system.l2cache.overall_mshr_miss_latency::total     28104357                       # number of overall MSHR miss cycles
system.l2cache.demand_mshr_miss_rate::.cpu.inst     0.397059                       # mshr miss rate for demand accesses
system.l2cache.demand_mshr_miss_rate::.cpu.data     0.353333                       # mshr miss rate for demand accesses
system.l2cache.demand_mshr_miss_rate::.cpu.dcache.prefetcher     0.754717                       # mshr miss rate for demand accesses
system.l2cache.demand_mshr_miss_rate::total     0.396450                       # mshr miss rate for demand accesses
system.l2cache.overall_mshr_miss_rate::.cpu.inst     0.397059                       # mshr miss rate for overall accesses
system.l2cache.overall_mshr_miss_rate::.cpu.data     0.353333                       # mshr miss rate for overall accesses
system.l2cache.overall_mshr_miss_rate::.cpu.dcache.prefetcher     0.754717                       # mshr miss rate for overall accesses
system.l2cache.overall_mshr_miss_rate::.l2cache.prefetcher          inf                       # mshr miss rate for overall accesses
system.l2cache.overall_mshr_miss_rate::total     0.398986                       # mshr miss rate for overall accesses
system.l2cache.demand_avg_mshr_miss_latency::.cpu.inst 60174.814815                       # average overall mshr miss latency
system.l2cache.demand_avg_mshr_miss_latency::.cpu.data 58729.559748                       # average overall mshr miss latency
system.l2cache.demand_avg_mshr_miss_latency::.cpu.dcache.prefetcher 59198.975000                       # average overall mshr miss latency
system.l2cache.demand_avg_mshr_miss_latency::total 59601.618337                       # average overall mshr miss latency
system.l2cache.overall_avg_mshr_miss_latency::.cpu.inst 60174.814815                       # average overall mshr miss latency
system.l2cache.overall_avg_mshr_miss_latency::.cpu.data 58729.559748                       # average overall mshr miss latency
system.l2cache.overall_avg_mshr_miss_latency::.cpu.dcache.prefetcher 59198.975000                       # average overall mshr miss latency
system.l2cache.overall_avg_mshr_miss_latency::.l2cache.prefetcher 50399.333333                       # average overall mshr miss latency
system.l2cache.overall_avg_mshr_miss_latency::total 59543.129237                       # average overall mshr miss latency
system.l2cache.replacements                       481                       # number of replacements
system.l2cache.WritebackDirty_hits::.writebacks          277                       # number of WritebackDirty hits
system.l2cache.WritebackDirty_hits::total          277                       # number of WritebackDirty hits
system.l2cache.WritebackDirty_accesses::.writebacks          277                       # number of WritebackDirty accesses(hits+misses)
system.l2cache.WritebackDirty_accesses::total          277                       # number of WritebackDirty accesses(hits+misses)
system.l2cache.CleanEvict_mshr_misses::.writebacks           14                       # number of CleanEvict MSHR misses
system.l2cache.CleanEvict_mshr_misses::total           14                       # number of CleanEvict MSHR misses
system.l2cache.CleanEvict_mshr_miss_rate::.writebacks          inf                       # mshr miss rate for CleanEvict accesses
system.l2cache.CleanEvict_mshr_miss_rate::total          inf                       # mshr miss rate for CleanEvict accesses
system.l2cache.HardPFReq_mshr_misses::.l2cache.prefetcher            3                       # number of HardPFReq MSHR misses
system.l2cache.HardPFReq_mshr_misses::total            3                       # number of HardPFReq MSHR misses
system.l2cache.HardPFReq_mshr_miss_latency::.l2cache.prefetcher       151198                       # number of HardPFReq MSHR miss cycles
system.l2cache.HardPFReq_mshr_miss_latency::total       151198                       # number of HardPFReq MSHR miss cycles
system.l2cache.HardPFReq_mshr_miss_rate::.l2cache.prefetcher          inf                       # mshr miss rate for HardPFReq accesses
system.l2cache.HardPFReq_mshr_miss_rate::total          inf                       # mshr miss rate for HardPFReq accesses
system.l2cache.HardPFReq_avg_mshr_miss_latency::.l2cache.prefetcher 50399.333333                       # average HardPFReq mshr miss latency
system.l2cache.HardPFReq_avg_mshr_miss_latency::total 50399.333333                       # average HardPFReq mshr miss latency
system.l2cache.ReadExReq_hits::.cpu.data           79                       # number of ReadExReq hits
system.l2cache.ReadExReq_hits::total               79                       # number of ReadExReq hits
system.l2cache.ReadExReq_misses::.cpu.data           19                       # number of ReadExReq misses
system.l2cache.ReadExReq_misses::total             19                       # number of ReadExReq misses
system.l2cache.ReadExReq_miss_latency::.cpu.data      1281200                       # number of ReadExReq miss cycles
system.l2cache.ReadExReq_miss_latency::total      1281200                       # number of ReadExReq miss cycles
system.l2cache.ReadExReq_accesses::.cpu.data           98                       # number of ReadExReq accesses(hits+misses)
system.l2cache.ReadExReq_accesses::total           98                       # number of ReadExReq accesses(hits+misses)
system.l2cache.ReadExReq_miss_rate::.cpu.data     0.193878                       # miss rate for ReadExReq accesses
system.l2cache.ReadExReq_miss_rate::total     0.193878                       # miss rate for ReadExReq accesses
system.l2cache.ReadExReq_avg_miss_latency::.cpu.data 67431.578947                       # average ReadExReq miss latency
system.l2cache.ReadExReq_avg_miss_latency::total 67431.578947                       # average ReadExReq miss latency
system.l2cache.ReadExReq_mshr_misses::.cpu.data           19                       # number of ReadExReq MSHR misses
system.l2cache.ReadExReq_mshr_misses::total           19                       # number of ReadExReq MSHR misses
system.l2cache.ReadExReq_mshr_miss_latency::.cpu.data      1129200                       # number of ReadExReq MSHR miss cycles
system.l2cache.ReadExReq_mshr_miss_latency::total      1129200                       # number of ReadExReq MSHR miss cycles
system.l2cache.ReadExReq_mshr_miss_rate::.cpu.data     0.193878                       # mshr miss rate for ReadExReq accesses
system.l2cache.ReadExReq_mshr_miss_rate::total     0.193878                       # mshr miss rate for ReadExReq accesses
system.l2cache.ReadExReq_avg_mshr_miss_latency::.cpu.data 59431.578947                       # average ReadExReq mshr miss latency
system.l2cache.ReadExReq_avg_mshr_miss_latency::total 59431.578947                       # average ReadExReq mshr miss latency
system.l2cache.ReadSharedReq_hits::.cpu.inst          410                       # number of ReadSharedReq hits
system.l2cache.ReadSharedReq_hits::.cpu.data          212                       # number of ReadSharedReq hits
system.l2cache.ReadSharedReq_hits::.cpu.dcache.prefetcher           13                       # number of ReadSharedReq hits
system.l2cache.ReadSharedReq_hits::total          635                       # number of ReadSharedReq hits
system.l2cache.ReadSharedReq_misses::.cpu.inst          270                       # number of ReadSharedReq misses
system.l2cache.ReadSharedReq_misses::.cpu.data          140                       # number of ReadSharedReq misses
system.l2cache.ReadSharedReq_misses::.cpu.dcache.prefetcher           40                       # number of ReadSharedReq misses
system.l2cache.ReadSharedReq_misses::total          450                       # number of ReadSharedReq misses
system.l2cache.ReadSharedReq_miss_latency::.cpu.inst     18399200                       # number of ReadSharedReq miss cycles
system.l2cache.ReadSharedReq_miss_latency::.cpu.data      9328800                       # number of ReadSharedReq miss cycles
system.l2cache.ReadSharedReq_miss_latency::.cpu.dcache.prefetcher      2687959                       # number of ReadSharedReq miss cycles
system.l2cache.ReadSharedReq_miss_latency::total     30415959                       # number of ReadSharedReq miss cycles
system.l2cache.ReadSharedReq_accesses::.cpu.inst          680                       # number of ReadSharedReq accesses(hits+misses)
system.l2cache.ReadSharedReq_accesses::.cpu.data          352                       # number of ReadSharedReq accesses(hits+misses)
system.l2cache.ReadSharedReq_accesses::.cpu.dcache.prefetcher           53                       # number of ReadSharedReq accesses(hits+misses)
system.l2cache.ReadSharedReq_accesses::total         1085                       # number of ReadSharedReq accesses(hits+misses)
system.l2cache.ReadSharedReq_miss_rate::.cpu.inst     0.397059                       # miss rate for ReadSharedReq accesses
system.l2cache.ReadSharedReq_miss_rate::.cpu.data     0.397727                       # miss rate for ReadSharedReq accesses
system.l2cache.ReadSharedReq_miss_rate::.cpu.dcache.prefetcher     0.754717                       # miss rate for ReadSharedReq accesses
system.l2cache.ReadSharedReq_miss_rate::total     0.414747                       # miss rate for ReadSharedReq accesses
system.l2cache.ReadSharedReq_avg_miss_latency::.cpu.inst 68145.185185                       # average ReadSharedReq miss latency
system.l2cache.ReadSharedReq_avg_miss_latency::.cpu.data 66634.285714                       # average ReadSharedReq miss latency
system.l2cache.ReadSharedReq_avg_miss_latency::.cpu.dcache.prefetcher 67198.975000                       # average ReadSharedReq miss latency
system.l2cache.ReadSharedReq_avg_miss_latency::total 67591.020000                       # average ReadSharedReq miss latency
system.l2cache.ReadSharedReq_mshr_misses::.cpu.inst          270                       # number of ReadSharedReq MSHR misses
system.l2cache.ReadSharedReq_mshr_misses::.cpu.data          140                       # number of ReadSharedReq MSHR misses
system.l2cache.ReadSharedReq_mshr_misses::.cpu.dcache.prefetcher           40                       # number of ReadSharedReq MSHR misses
system.l2cache.ReadSharedReq_mshr_misses::total          450                       # number of ReadSharedReq MSHR misses
system.l2cache.ReadSharedReq_mshr_miss_latency::.cpu.inst     16247200                       # number of ReadSharedReq MSHR miss cycles
system.l2cache.ReadSharedReq_mshr_miss_latency::.cpu.data      8208800                       # number of ReadSharedReq MSHR miss cycles
system.l2cache.ReadSharedReq_mshr_miss_latency::.cpu.dcache.prefetcher      2367959                       # number of ReadSharedReq MSHR miss cycles
system.l2cache.ReadSharedReq_mshr_miss_latency::total     26823959                       # number of ReadSharedReq MSHR miss cycles
system.l2cache.ReadSharedReq_mshr_miss_rate::.cpu.inst     0.397059                       # mshr miss rate for ReadSharedReq accesses
system.l2cache.ReadSharedReq_mshr_miss_rate::.cpu.data     0.397727                       # mshr miss rate for ReadSharedReq accesses
system.l2cache.ReadSharedReq_mshr_miss_rate::.cpu.dcache.prefetcher     0.754717                       # mshr miss rate for ReadSharedReq accesses
system.l2cache.ReadSharedReq_mshr_miss_rate::total     0.414747                       # mshr miss rate for ReadSharedReq accesses
system.l2cache.ReadSharedReq_avg_mshr_miss_latency::.cpu.inst 60174.814815                       # average ReadSharedReq mshr miss latency
system.l2cache.ReadSharedReq_avg_mshr_miss_latency::.cpu.data 58634.285714                       # average ReadSharedReq mshr miss latency
system.l2cache.ReadSharedReq_avg_mshr_miss_latency::.cpu.dcache.prefetcher 59198.975000                       # average ReadSharedReq mshr miss latency
system.l2cache.ReadSharedReq_avg_mshr_miss_latency::total 59608.797778                       # average ReadSharedReq mshr miss latency
system.l2cache.prefetcher.pwrStateResidencyTicks::UNDEFINED   1484477600                       # Cumulative time (in ticks) in various power states
system.l2cache.tags.pwrStateResidencyTicks::UNDEFINED   1484477600                       # Cumulative time (in ticks) in various power states
system.l2cache.tags.tagsinuse                    4096                       # Cycle average of tags in use
system.l2cache.tags.total_refs                  15966                       # Total number of references to valid blocks.
system.l2cache.tags.sampled_refs                 4577                       # Sample count of references to valid blocks.
system.l2cache.tags.avg_refs                 3.488311                       # Average number of references to valid blocks.
system.l2cache.tags.warmup_cycle                    0                       # Cycle when the warmup percentage was hit.
system.l2cache.tags.occ_blocks::.writebacks    33.751498                       # Average occupied blocks per requestor
system.l2cache.tags.occ_blocks::.cpu.inst  1063.698930                       # Average occupied blocks per requestor
system.l2cache.tags.occ_blocks::.cpu.data  1889.049157                       # Average occupied blocks per requestor
system.l2cache.tags.occ_blocks::.cpu.dcache.prefetcher   890.529988                       # Average occupied blocks per requestor
system.l2cache.tags.occ_blocks::.l2cache.prefetcher   218.970428                       # Average occupied blocks per requestor
system.l2cache.tags.occ_percent::.writebacks     0.008240                       # Average percentage of cache occupancy
system.l2cache.tags.occ_percent::.cpu.inst     0.259692                       # Average percentage of cache occupancy
system.l2cache.tags.occ_percent::.cpu.data     0.461194                       # Average percentage of cache occupancy
system.l2cache.tags.occ_percent::.cpu.dcache.prefetcher     0.217415                       # Average percentage of cache occupancy
system.l2cache.tags.occ_percent::.l2cache.prefetcher     0.053460                       # Average percentage of cache occupancy
system.l2cache.tags.occ_percent::total              1                       # Average percentage of cache occupancy
system.l2cache.tags.occ_task_id_blocks::1022         1018                       # Occupied blocks per task id
system.l2cache.tags.occ_task_id_blocks::1024         3078                       # Occupied blocks per task id
system.l2cache.tags.age_task_id_blocks_1022::0           14                       # Occupied blocks per task id
system.l2cache.tags.age_task_id_blocks_1022::3           31                       # Occupied blocks per task id
system.l2cache.tags.age_task_id_blocks_1022::4          973                       # Occupied blocks per task id
system.l2cache.tags.age_task_id_blocks_1024::0          169                       # Occupied blocks per task id
system.l2cache.tags.age_task_id_blocks_1024::1          120                       # Occupied blocks per task id
system.l2cache.tags.age_task_id_blocks_1024::2            3                       # Occupied blocks per task id
system.l2cache.tags.age_task_id_blocks_1024::3          143                       # Occupied blocks per task id
system.l2cache.tags.age_task_id_blocks_1024::4         2643                       # Occupied blocks per task id
system.l2cache.tags.occ_task_id_percent::1022     0.248535                       # Percentage of cache occupancy per task id
system.l2cache.tags.occ_task_id_percent::1024     0.751465                       # Percentage of cache occupancy per task id
system.l2cache.tags.tag_accesses                19401                       # Number of tag accesses
system.l2cache.tags.data_accesses               19401                       # Number of data accesses
system.mem_ctrl.pwrStateResidencyTicks::UNDEFINED   1484477600                       # Cumulative time (in ticks) in various power states
system.mem_ctrl.bytes_read::.cpu.inst           17216                       # Number of bytes read from this memory
system.mem_ctrl.bytes_read::.cpu.data           10176                       # Number of bytes read from this memory
system.mem_ctrl.bytes_read::.cpu.dcache.prefetcher         2560                       # Number of bytes read from this memory
system.mem_ctrl.bytes_read::.l2cache.prefetcher          192                       # Number of bytes read from this memory
system.mem_ctrl.bytes_read::total               30144                       # Number of bytes read from this memory
system.mem_ctrl.bytes_inst_read::.cpu.inst        17216                       # Number of instructions bytes read from this memory
system.mem_ctrl.bytes_inst_read::total          17216                       # Number of instructions bytes read from this memory
system.mem_ctrl.bytes_written::.writebacks         1856                       # Number of bytes written to this memory
system.mem_ctrl.bytes_written::total             1856                       # Number of bytes written to this memory
system.mem_ctrl.num_reads::.cpu.inst              269                       # Number of read requests responded to by this memory
system.mem_ctrl.num_reads::.cpu.data              159                       # Number of read requests responded to by this memory
system.mem_ctrl.num_reads::.cpu.dcache.prefetcher           40                       # Number of read requests responded to by this memory
system.mem_ctrl.num_reads::.l2cache.prefetcher            3                       # Number of read requests responded to by this memory
system.mem_ctrl.num_reads::total                  471                       # Number of read requests responded to by this memory
system.mem_ctrl.num_writes::.writebacks            29                       # Number of write requests responded to by this memory
system.mem_ctrl.num_writes::total                  29                       # Number of write requests responded to by this memory
system.mem_ctrl.bw_read::.cpu.inst           11597346                       # Total read bandwidth from this memory (bytes/s)
system.mem_ctrl.bw_read::.cpu.data            6854937                       # Total read bandwidth from this memory (bytes/s)
system.mem_ctrl.bw_read::.cpu.dcache.prefetcher      1724512                       # Total read bandwidth from this memory (bytes/s)
system.mem_ctrl.bw_read::.l2cache.prefetcher       129338                       # Total read bandwidth from this memory (bytes/s)
system.mem_ctrl.bw_read::total               20306133                       # Total read bandwidth from this memory (bytes/s)
system.mem_ctrl.bw_inst_read::.cpu.inst      11597346                       # Instruction read bandwidth from this memory (bytes/s)
system.mem_ctrl.bw_inst_read::total          11597346                       # Instruction read bandwidth from this memory (bytes/s)
system.mem_ctrl.bw_write::.writebacks         1250271                       # Write bandwidth from this memory (bytes/s)
system.mem_ctrl.bw_write::total               1250271                       # Write bandwidth from this memory (bytes/s)
system.mem_ctrl.bw_total::.writebacks         1250271                       # Total bandwidth to/from this memory (bytes/s)
system.mem_ctrl.bw_total::.cpu.inst          11597346                       # Total bandwidth to/from this memory (bytes/s)
system.mem_ctrl.bw_total::.cpu.data           6854937                       # Total bandwidth to/from this memory (bytes/s)
system.mem_ctrl.bw_total::.cpu.dcache.prefetcher      1724512                       # Total bandwidth to/from this memory (bytes/s)
system.mem_ctrl.bw_total::.l2cache.prefetcher       129338                       # Total bandwidth to/from this memory (bytes/s)
system.mem_ctrl.bw_total::total              21556405                       # Total bandwidth to/from this memory (bytes/s)

---------- End Simulation Statistics   ----------
