
---------- Begin Simulation Statistics ----------
final_tick                                 1092840800                       # Number of ticks from beginning of simulation (restored from checkpoints and never reset)
host_inst_rate                                 185726                       # Simulator instruction rate (inst/s)
host_mem_usage                                4407876                       # Number of bytes of host memory used
host_op_rate                                   323276                       # Simulator op (including micro ops) rate (op/s)
host_seconds                                    11.12                       # Real time elapsed on the host
host_tick_rate                               98302114                       # Simulator tick rate (ticks/s)
sim_freq                                 1000000000000                       # Frequency of simulated ticks
sim_insts                                     2064729                       # Number of instructions simulated
sim_ops                                       3593908                       # Number of ops (including micro ops) simulated
sim_seconds                                  0.001093                       # Number of seconds simulated
sim_ticks                                  1092840800                       # Number of ticks simulated
system.cpu.branchPred.BTBCorrect                    0                       # Number of correct BTB predictions (this stat may not work properly.
system.cpu.branchPred.BTBHitPct              0.000000                       # BTB Hit Percentage
system.cpu.branchPred.BTBHits                       0                       # Number of BTB hits
system.cpu.branchPred.BTBLookups               435728                       # Number of BTB lookups
system.cpu.branchPred.RASInCorrect                 10                       # Number of incorrect RAS predictions.
system.cpu.branchPred.condIncorrect             24359                       # Number of conditional branches incorrect
system.cpu.branchPred.condPredicted            461804                       # Number of conditional branches predicted
system.cpu.branchPred.indirectHits             238243                       # Number of indirect target hits.
system.cpu.branchPred.indirectLookups          435728                       # Number of indirect predictor lookups.
system.cpu.branchPred.indirectMisses           197485                       # Number of indirect misses.
system.cpu.branchPred.lookups                  487705                       # Number of BP lookups
system.cpu.branchPred.usedRAS                   11253                       # Number of times the RAS was used to get a target.
system.cpu.branchPredindirectMispredicted        12378                       # Number of mispredicted indirect branches.
system.cpu.cc_regfile_reads                   2368140                       # number of cc regfile reads
system.cpu.cc_regfile_writes                  1931864                       # number of cc regfile writes
system.cpu.commit.amos                              0                       # Number of atomic instructions committed
system.cpu.commit.branchMispredicts             24448                       # The number of times a branch was mispredicted
system.cpu.commit.branches                     344985                       # Number of branches committed
system.cpu.commit.bw_lim_events                596390                       # number cycles where commit BW limit reached
system.cpu.commit.commitNonSpecStalls             760                       # The number of times commit has been forced to stall to communicate backwards
system.cpu.commit.commitSquashedInsts          881970                       # The number of squashed insts skipped by commit
system.cpu.commit.committedInsts              2064729                       # Number of instructions committed
system.cpu.commit.committedOps                3593908                       # Number of ops (including micro ops) committed
system.cpu.commit.committed_per_cycle::samples      2328143                       # Number of insts commited each cycle
system.cpu.commit.committed_per_cycle::mean     1.543680                       # Number of insts commited each cycle
system.cpu.commit.committed_per_cycle::stdev     1.723961                       # Number of insts commited each cycle
system.cpu.commit.committed_per_cycle::underflows            0      0.00%      0.00% # Number of insts commited each cycle
system.cpu.commit.committed_per_cycle::0      1152643     49.51%     49.51% # Number of insts commited each cycle
system.cpu.commit.committed_per_cycle::1       178930      7.69%     57.19% # Number of insts commited each cycle
system.cpu.commit.committed_per_cycle::2       171122      7.35%     64.54% # Number of insts commited each cycle
system.cpu.commit.committed_per_cycle::3       229058      9.84%     74.38% # Number of insts commited each cycle
system.cpu.commit.committed_per_cycle::4       596390     25.62%    100.00% # Number of insts commited each cycle
system.cpu.commit.committed_per_cycle::overflows            0      0.00%    100.00% # Number of insts commited each cycle
system.cpu.commit.committed_per_cycle::min_value            0                       # Number of insts commited each cycle
system.cpu.commit.committed_per_cycle::max_value            4                       # Number of insts commited each cycle
system.cpu.commit.committed_per_cycle::total      2328143                       # Number of insts commited each cycle
system.cpu.commit.fp_insts                      76025                       # Number of committed floating point instructions.
system.cpu.commit.function_calls                 9404                       # Number of function calls committed.
system.cpu.commit.int_insts                   3537137                       # Number of committed integer instructions.
system.cpu.commit.loads                        492403                       # Number of loads committed
system.cpu.commit.membars                           1                       # Number of memory barriers committed
system.cpu.commit.op_class_0::No_OpClass        20699      0.58%      0.58% # Class of committed instruction
system.cpu.commit.op_class_0::IntAlu          2825494     78.62%     79.19% # Class of committed instruction
system.cpu.commit.op_class_0::IntMult            1350      0.04%     79.23% # Class of committed instruction
system.cpu.commit.op_class_0::IntDiv            38180      1.06%     80.29% # Class of committed instruction
system.cpu.commit.op_class_0::FloatAdd           2964      0.08%     80.38% # Class of committed instruction
system.cpu.commit.op_class_0::FloatCmp              0      0.00%     80.38% # Class of committed instruction
system.cpu.commit.op_class_0::FloatCvt           1248      0.03%     80.41% # Class of committed instruction
system.cpu.commit.op_class_0::FloatMult             0      0.00%     80.41% # Class of committed instruction
system.cpu.commit.op_class_0::FloatMultAcc            0      0.00%     80.41% # Class of committed instruction
system.cpu.commit.op_class_0::FloatDiv              0      0.00%     80.41% # Class of committed instruction
system.cpu.commit.op_class_0::FloatMisc             0      0.00%     80.41% # Class of committed instruction
system.cpu.commit.op_class_0::FloatSqrt             0      0.00%     80.41% # Class of committed instruction
system.cpu.commit.op_class_0::SimdAdd            6274      0.17%     80.59% # Class of committed instruction
system.cpu.commit.op_class_0::SimdAddAcc            0      0.00%     80.59% # Class of committed instruction
system.cpu.commit.op_class_0::SimdAlu           11601      0.32%     80.91% # Class of committed instruction
system.cpu.commit.op_class_0::SimdCmp               0      0.00%     80.91% # Class of committed instruction
system.cpu.commit.op_class_0::SimdCvt           12518      0.35%     81.26% # Class of committed instruction
system.cpu.commit.op_class_0::SimdMisc           7239      0.20%     81.46% # Class of committed instruction
system.cpu.commit.op_class_0::SimdMult              0      0.00%     81.46% # Class of committed instruction
system.cpu.commit.op_class_0::SimdMultAcc            0      0.00%     81.46% # Class of committed instruction
system.cpu.commit.op_class_0::SimdShift          1242      0.03%     81.49% # Class of committed instruction
system.cpu.commit.op_class_0::SimdShiftAcc            0      0.00%     81.49% # Class of committed instruction
system.cpu.commit.op_class_0::SimdDiv               0      0.00%     81.49% # Class of committed instruction
system.cpu.commit.op_class_0::SimdSqrt              0      0.00%     81.49% # Class of committed instruction
system.cpu.commit.op_class_0::SimdFloatAdd            0      0.00%     81.49% # Class of committed instruction
system.cpu.commit.op_class_0::SimdFloatAlu            0      0.00%     81.49% # Class of committed instruction
system.cpu.commit.op_class_0::SimdFloatCmp            0      0.00%     81.49% # Class of committed instruction
system.cpu.commit.op_class_0::SimdFloatCvt            0      0.00%     81.49% # Class of committed instruction
system.cpu.commit.op_class_0::SimdFloatDiv            0      0.00%     81.49% # Class of committed instruction
system.cpu.commit.op_class_0::SimdFloatMisc            0      0.00%     81.49% # Class of committed instruction
system.cpu.commit.op_class_0::SimdFloatMult            0      0.00%     81.49% # Class of committed instruction
system.cpu.commit.op_class_0::SimdFloatMultAcc            0      0.00%     81.49% # Class of committed instruction
system.cpu.commit.op_class_0::SimdFloatSqrt            0      0.00%     81.49% # Class of committed instruction
system.cpu.commit.op_class_0::SimdReduceAdd            0      0.00%     81.49% # Class of committed instruction
system.cpu.commit.op_class_0::SimdReduceAlu            0      0.00%     81.49% # Class of committed instruction
system.cpu.commit.op_class_0::SimdReduceCmp            0      0.00%     81.49% # Class of committed instruction
system.cpu.commit.op_class_0::SimdFloatReduceAdd            0      0.00%     81.49% # Class of committed instruction
system.cpu.commit.op_class_0::SimdFloatReduceCmp            0      0.00%     81.49% # Class of committed instruction
system.cpu.commit.op_class_0::SimdAes               0      0.00%     81.49% # Class of committed instruction
system.cpu.commit.op_class_0::SimdAesMix            0      0.00%     81.49% # Class of committed instruction
system.cpu.commit.op_class_0::SimdSha1Hash            0      0.00%     81.49% # Class of committed instruction
system.cpu.commit.op_class_0::SimdSha1Hash2            0      0.00%     81.49% # Class of committed instruction
system.cpu.commit.op_class_0::SimdSha256Hash            0      0.00%     81.49% # Class of committed instruction
system.cpu.commit.op_class_0::SimdSha256Hash2            0      0.00%     81.49% # Class of committed instruction
system.cpu.commit.op_class_0::SimdShaSigma2            0      0.00%     81.49% # Class of committed instruction
system.cpu.commit.op_class_0::SimdShaSigma3            0      0.00%     81.49% # Class of committed instruction
system.cpu.commit.op_class_0::SimdPredAlu            0      0.00%     81.49% # Class of committed instruction
system.cpu.commit.op_class_0::MemRead          472817     13.16%     94.65% # Class of committed instruction
system.cpu.commit.op_class_0::MemWrite         160429      4.46%     99.11% # Class of committed instruction
system.cpu.commit.op_class_0::FloatMemRead        19586      0.54%     99.66% # Class of committed instruction
system.cpu.commit.op_class_0::FloatMemWrite        12267      0.34%    100.00% # Class of committed instruction
system.cpu.commit.op_class_0::IprAccess             0      0.00%    100.00% # Class of committed instruction
system.cpu.commit.op_class_0::InstPrefetch            0      0.00%    100.00% # Class of committed instruction
system.cpu.commit.op_class_0::total           3593908                       # Class of committed instruction
system.cpu.commit.refs                         665099                       # Number of memory references committed
system.cpu.commit.swp_count                         0                       # Number of s/w prefetches committed
system.cpu.commit.vec_insts                         0                       # Number of committed Vector instructions.
system.cpu.committedInsts                     2064729                       # Number of Instructions Simulated
system.cpu.committedOps                       3593908                       # Number of Ops (including micro ops) Simulated
system.cpu.cpi                               1.323226                       # CPI: Cycles Per Instruction
system.cpu.cpi_total                         1.323226                       # CPI: Total CPI of All Threads
system.cpu.dcache.prefetcher.num_hwpf_issued         8233                       # number of hwpf issued
system.cpu.dcache.prefetcher.pfBufferHit        33820                       # number of redundant prefetches already in prefetch queue
system.cpu.dcache.prefetcher.pfIdentified        49407                       # number of prefetch candidates identified
system.cpu.dcache.prefetcher.pfInCache              0                       # number of redundant prefetches already in cache/mshr dropped
system.cpu.dcache.prefetcher.pfRemovedFull            0                       # number of prefetches dropped due to prefetch queue size
system.cpu.dcache.prefetcher.pfSpanPage          4453                       # number of prefetches that crossed the page
system.cpu.decode.BlockedCycles               1019614                       # Number of cycles decode is blocked
system.cpu.decode.DecodedInsts                4692487                       # Number of instructions handled by decode
system.cpu.decode.IdleCycles                   296396                       # Number of cycles decode is idle
system.cpu.decode.RunCycles                   1139035                       # Number of cycles decode is running
system.cpu.decode.SquashCycles                  24508                       # Number of cycles decode is squashing
system.cpu.decode.UnblockCycles                 89036                       # Number of cycles decode is unblocking
system.cpu.dtb.rdAccesses                      575011                       # TLB accesses on read requests
system.cpu.dtb.rdMisses                          1997                       # TLB misses on read requests
system.cpu.dtb.wrAccesses                      192176                       # TLB accesses on write requests
system.cpu.dtb.wrMisses                           165                       # TLB misses on write requests
system.cpu.fetch.Branches                      487705                       # Number of branches that fetch encountered
system.cpu.fetch.CacheLines                    241161                       # Number of cache lines fetched
system.cpu.fetch.Cycles                       2210762                       # Number of cycles fetch has run and was not squashing or blocked
system.cpu.fetch.IcacheSquashes                  4648                       # Number of outstanding Icache misses that were squashed
system.cpu.fetch.Insts                        2830836                       # Number of instructions fetch has processed
system.cpu.fetch.MiscStallCycles                  131                       # Number of cycles fetch has spent waiting on interrupts, or bad addresses, or out of MSHRs
system.cpu.fetch.PendingQuiesceStallCycles            7                       # Number of stall cycles due to pending quiesce instructions
system.cpu.fetch.PendingTrapStallCycles           652                       # Number of stall cycles due to pending traps
system.cpu.fetch.SquashCycles                   49016                       # Number of cycles fetch has spent squashing
system.cpu.fetch.branchRate                  0.178509                       # Number of branch fetches per cycle
system.cpu.fetch.icacheStallCycles             332529                       # Number of cycles fetch is stalled on an Icache miss
system.cpu.fetch.predictedBranches             249496                       # Number of branches that fetch has predicted taken
system.cpu.fetch.rate                        1.036138                       # Number of inst fetches per cycle
system.cpu.fetch.rateDist::samples            2568589                       # Number of instructions fetched each cycle (Total)
system.cpu.fetch.rateDist::mean              1.934074                       # Number of instructions fetched each cycle (Total)
system.cpu.fetch.rateDist::stdev             1.930556                       # Number of instructions fetched each cycle (Total)
system.cpu.fetch.rateDist::underflows               0      0.00%      0.00% # Number of instructions fetched each cycle (Total)
system.cpu.fetch.rateDist::0                  1222196     47.58%     47.58% # Number of instructions fetched each cycle (Total)
system.cpu.fetch.rateDist::1                    73790      2.87%     50.46% # Number of instructions fetched each cycle (Total)
system.cpu.fetch.rateDist::2                    60254      2.35%     52.80% # Number of instructions fetched each cycle (Total)
system.cpu.fetch.rateDist::3                    75854      2.95%     55.75% # Number of instructions fetched each cycle (Total)
system.cpu.fetch.rateDist::4                  1136495     44.25%    100.00% # Number of instructions fetched each cycle (Total)
system.cpu.fetch.rateDist::overflows                0      0.00%    100.00% # Number of instructions fetched each cycle (Total)
system.cpu.fetch.rateDist::min_value                0                       # Number of instructions fetched each cycle (Total)
system.cpu.fetch.rateDist::max_value                4                       # Number of instructions fetched each cycle (Total)
system.cpu.fetch.rateDist::total              2568589                       # Number of instructions fetched each cycle (Total)
system.cpu.fp_regfile_reads                    125089                       # number of floating regfile reads
system.cpu.fp_regfile_writes                    68812                       # number of floating regfile writes
system.cpu.fuPool.fu_ticks_busy::IntALU(0)    216771600                       # Total ticks fu was busy
system.cpu.fuPool.fu_ticks_busy::IntALU(1)    216771600                       # Total ticks fu was busy
system.cpu.fuPool.fu_ticks_busy::IntALU(2)    216771600                       # Total ticks fu was busy
system.cpu.fuPool.fu_ticks_busy::IntALU(3)    216771600                       # Total ticks fu was busy
system.cpu.fuPool.fu_ticks_busy::IntALU(4)    216771200                       # Total ticks fu was busy
system.cpu.fuPool.fu_ticks_busy::IntALU(5)    216771200                       # Total ticks fu was busy
system.cpu.fuPool.fu_ticks_busy::IntMultDiv(0)      8728400                       # Total ticks fu was busy
system.cpu.fuPool.fu_ticks_busy::IntMultDiv(1)      8728400                       # Total ticks fu was busy
system.cpu.fuPool.fu_ticks_busy::FP_ALU(0)       585600                       # Total ticks fu was busy
system.cpu.fuPool.fu_ticks_busy::FP_ALU(1)       585600                       # Total ticks fu was busy
system.cpu.fuPool.fu_ticks_busy::FP_ALU(2)       584800                       # Total ticks fu was busy
system.cpu.fuPool.fu_ticks_busy::FP_ALU(3)       584800                       # Total ticks fu was busy
system.cpu.fuPool.fu_ticks_busy::FP_MultDiv(0)            0                       # Total ticks fu was busy
system.cpu.fuPool.fu_ticks_busy::FP_MultDiv(1)            0                       # Total ticks fu was busy
system.cpu.fuPool.fu_ticks_busy::SIMD_Unit(0)      4520800                       # Total ticks fu was busy
system.cpu.fuPool.fu_ticks_busy::SIMD_Unit(1)      4675600                       # Total ticks fu was busy
system.cpu.fuPool.fu_ticks_busy::SIMD_Unit(2)      4877200                       # Total ticks fu was busy
system.cpu.fuPool.fu_ticks_busy::SIMD_Unit(3)      4708800                       # Total ticks fu was busy
system.cpu.fuPool.fu_ticks_busy::PredALU(0)            0                       # Total ticks fu was busy
system.cpu.fuPool.fu_ticks_busy::RdWrPort(0)     78171600                       # Total ticks fu was busy
system.cpu.fuPool.fu_ticks_busy::RdWrPort(1)     78142400                       # Total ticks fu was busy
system.cpu.fuPool.fu_ticks_busy::RdWrPort(2)     78180000                       # Total ticks fu was busy
system.cpu.fuPool.fu_ticks_busy::RdWrPort(3)     78189200                       # Total ticks fu was busy
system.cpu.fuPool.fu_ticks_busy::IprPort(0)            0                       # Total ticks fu was busy
system.cpu.fuPool.fu_ticks_busy::total     1651892000                       # Total ticks fu was busy
system.cpu.icache.prefetcher.num_hwpf_issued            0                       # number of hwpf issued
system.cpu.icache.prefetcher.pfBufferHit            0                       # number of redundant prefetches already in prefetch queue
system.cpu.icache.prefetcher.pfIdentified            0                       # number of prefetch candidates identified
system.cpu.icache.prefetcher.pfInCache              0                       # number of redundant prefetches already in cache/mshr dropped
system.cpu.icache.prefetcher.pfRemovedFull            0                       # number of prefetches dropped due to prefetch queue size
system.cpu.icache.prefetcher.pfSpanPage             0                       # number of prefetches that crossed the page
system.cpu.idleCycles                          163514                       # Total number of cycles that the CPU has spent unscheduled due to idling
system.cpu.iew.branchMispredicts                28915                       # Number of branch mispredicts detected at execute
system.cpu.iew.exec_branches                   374877                       # Number of branches executed
system.cpu.iew.exec_nop                             0                       # number of nop insts executed
system.cpu.iew.exec_rate                     1.508705                       # Inst execution rate
system.cpu.iew.exec_refs                       768801                       # number of memory reference insts executed
system.cpu.iew.exec_stores                     192165                       # Number of stores executed
system.cpu.iew.exec_swp                             0                       # number of swp insts executed
system.cpu.iew.iewBlockCycles                  692529                       # Number of cycles IEW is blocking
system.cpu.iew.iewDispLoadInsts                607183                       # Number of dispatched load instructions
system.cpu.iew.iewDispNonSpecInsts                963                       # Number of dispatched non-speculative instructions
system.cpu.iew.iewDispSquashedInsts               560                       # Number of squashed instructions skipped by dispatch
system.cpu.iew.iewDispStoreInsts               202299                       # Number of dispatched store instructions
system.cpu.iew.iewDispatchedInsts             4475843                       # Number of instructions dispatched to IQ
system.cpu.iew.iewExecLoadInsts                576636                       # Number of load instructions executed
system.cpu.iew.iewExecSquashedInsts             34743                       # Number of squashed instructions skipped in execute
system.cpu.iew.iewExecutedInsts               4121938                       # Number of executed instructions
system.cpu.iew.iewIQFullEvents                   3362                       # Number of times the IQ has become full, causing a stall
system.cpu.iew.iewIdleCycles                        0                       # Number of cycles IEW is idle
system.cpu.iew.iewLSQFullEvents                  7471                       # Number of times the LSQ has become full, causing a stall
system.cpu.iew.iewSquashCycles                  24508                       # Number of cycles IEW is squashing
system.cpu.iew.iewUnblockCycles                 13707                       # Number of cycles IEW is unblocking
system.cpu.iew.lsq.thread0.blockedLoads             0                       # Number of blocked loads due to partial load-store forwarding
system.cpu.iew.lsq.thread0.cacheBlocked           615                       # Number of times an access to memory failed due to the cache being blocked
system.cpu.iew.lsq.thread0.forwLoads            39602                       # Number of loads that had data forwarded from stores
system.cpu.iew.lsq.thread0.ignoredResponses          234                       # Number of memory responses ignored because the instruction is squashed
system.cpu.iew.lsq.thread0.invAddrLoads             0                       # Number of loads ignored due to an invalid address
system.cpu.iew.lsq.thread0.invAddrSwpfs             0                       # Number of software prefetches ignored due to an invalid address
system.cpu.iew.lsq.thread0.memOrderViolation           73                       # Number of memory ordering violations
system.cpu.iew.lsq.thread0.rescheduledLoads            0                       # Number of loads that were rescheduled
system.cpu.iew.lsq.thread0.squashedLoads       114778                       # Number of loads squashed
system.cpu.iew.lsq.thread0.squashedStores        29602                       # Number of stores squashed
system.cpu.iew.memOrderViolationEvents             73                       # Number of memory order violations
system.cpu.iew.predictedNotTakenIncorrect        20760                       # Number of branches that were predicted not taken incorrectly
system.cpu.iew.predictedTakenIncorrect           8155                       # Number of branches that were predicted taken incorrectly
system.cpu.iew.wb_consumers                   5774941                       # num instructions consuming a value
system.cpu.iew.wb_count                       4099934                       # cumulative count of insts written-back
system.cpu.iew.wb_fanout                     0.567032                       # average fanout of values written-back
system.cpu.iew.wb_producers                   3274578                       # num instructions producing a value
system.cpu.iew.wb_rate                       1.500651                       # insts written-back per cycle
system.cpu.iew.wb_sent                        4106826                       # cumulative count of insts sent to commit
system.cpu.int_regfile_reads                  6387276                       # number of integer regfile reads
system.cpu.int_regfile_writes                 3541418                       # number of integer regfile writes
system.cpu.ipc                               0.755729                       # IPC: Instructions Per Cycle
system.cpu.ipc_total                         0.755729                       # IPC: Total IPC of All Threads
system.cpu.iq.FU_type_0::No_OpClass             26951      0.65%      0.65% # Type of FU issued
system.cpu.iq.FU_type_0::IntAlu               3251574     78.23%     78.87% # Type of FU issued
system.cpu.iq.FU_type_0::IntMult                 1384      0.03%     78.91% # Type of FU issued
system.cpu.iq.FU_type_0::IntDiv                 42258      1.02%     79.92% # Type of FU issued
system.cpu.iq.FU_type_0::FloatAdd                4558      0.11%     80.03% # Type of FU issued
system.cpu.iq.FU_type_0::FloatCmp                   0      0.00%     80.03% # Type of FU issued
system.cpu.iq.FU_type_0::FloatCvt                1294      0.03%     80.06% # Type of FU issued
system.cpu.iq.FU_type_0::FloatMult                  0      0.00%     80.06% # Type of FU issued
system.cpu.iq.FU_type_0::FloatMultAcc               0      0.00%     80.06% # Type of FU issued
system.cpu.iq.FU_type_0::FloatDiv                   0      0.00%     80.06% # Type of FU issued
system.cpu.iq.FU_type_0::FloatMisc                  0      0.00%     80.06% # Type of FU issued
system.cpu.iq.FU_type_0::FloatSqrt                  0      0.00%     80.06% # Type of FU issued
system.cpu.iq.FU_type_0::SimdAdd                 6965      0.17%     80.23% # Type of FU issued
system.cpu.iq.FU_type_0::SimdAddAcc                 0      0.00%     80.23% # Type of FU issued
system.cpu.iq.FU_type_0::SimdAlu                15392      0.37%     80.60% # Type of FU issued
system.cpu.iq.FU_type_0::SimdCmp                    0      0.00%     80.60% # Type of FU issued
system.cpu.iq.FU_type_0::SimdCvt                14459      0.35%     80.95% # Type of FU issued
system.cpu.iq.FU_type_0::SimdMisc                7856      0.19%     81.14% # Type of FU issued
system.cpu.iq.FU_type_0::SimdMult                   0      0.00%     81.14% # Type of FU issued
system.cpu.iq.FU_type_0::SimdMultAcc                0      0.00%     81.14% # Type of FU issued
system.cpu.iq.FU_type_0::SimdShift               2284      0.05%     81.19% # Type of FU issued
system.cpu.iq.FU_type_0::SimdShiftAcc               0      0.00%     81.19% # Type of FU issued
system.cpu.iq.FU_type_0::SimdDiv                    0      0.00%     81.19% # Type of FU issued
system.cpu.iq.FU_type_0::SimdSqrt                   0      0.00%     81.19% # Type of FU issued
system.cpu.iq.FU_type_0::SimdFloatAdd               0      0.00%     81.19% # Type of FU issued
system.cpu.iq.FU_type_0::SimdFloatAlu               0      0.00%     81.19% # Type of FU issued
system.cpu.iq.FU_type_0::SimdFloatCmp               0      0.00%     81.19% # Type of FU issued
system.cpu.iq.FU_type_0::SimdFloatCvt               0      0.00%     81.19% # Type of FU issued
system.cpu.iq.FU_type_0::SimdFloatDiv               0      0.00%     81.19% # Type of FU issued
system.cpu.iq.FU_type_0::SimdFloatMisc              0      0.00%     81.19% # Type of FU issued
system.cpu.iq.FU_type_0::SimdFloatMult              0      0.00%     81.19% # Type of FU issued
system.cpu.iq.FU_type_0::SimdFloatMultAcc            0      0.00%     81.19% # Type of FU issued
system.cpu.iq.FU_type_0::SimdFloatSqrt              0      0.00%     81.19% # Type of FU issued
system.cpu.iq.FU_type_0::SimdReduceAdd              0      0.00%     81.19% # Type of FU issued
system.cpu.iq.FU_type_0::SimdReduceAlu              0      0.00%     81.19% # Type of FU issued
system.cpu.iq.FU_type_0::SimdReduceCmp              0      0.00%     81.19% # Type of FU issued
system.cpu.iq.FU_type_0::SimdFloatReduceAdd            0      0.00%     81.19% # Type of FU issued
system.cpu.iq.FU_type_0::SimdFloatReduceCmp            0      0.00%     81.19% # Type of FU issued
system.cpu.iq.FU_type_0::SimdAes                    0      0.00%     81.19% # Type of FU issued
system.cpu.iq.FU_type_0::SimdAesMix                 0      0.00%     81.19% # Type of FU issued
system.cpu.iq.FU_type_0::SimdSha1Hash               0      0.00%     81.19% # Type of FU issued
system.cpu.iq.FU_type_0::SimdSha1Hash2              0      0.00%     81.19% # Type of FU issued
system.cpu.iq.FU_type_0::SimdSha256Hash             0      0.00%     81.19% # Type of FU issued
system.cpu.iq.FU_type_0::SimdSha256Hash2            0      0.00%     81.19% # Type of FU issued
system.cpu.iq.FU_type_0::SimdShaSigma2              0      0.00%     81.19% # Type of FU issued
system.cpu.iq.FU_type_0::SimdShaSigma3              0      0.00%     81.19% # Type of FU issued
system.cpu.iq.FU_type_0::SimdPredAlu                0      0.00%     81.19% # Type of FU issued
system.cpu.iq.FU_type_0::MemRead               561021     13.50%     94.69% # Type of FU issued
system.cpu.iq.FU_type_0::MemWrite              181183      4.36%     99.05% # Type of FU issued
system.cpu.iq.FU_type_0::FloatMemRead           25908      0.62%     99.67% # Type of FU issued
system.cpu.iq.FU_type_0::FloatMemWrite          13598      0.33%    100.00% # Type of FU issued
system.cpu.iq.FU_type_0::IprAccess                  0      0.00%    100.00% # Type of FU issued
system.cpu.iq.FU_type_0::InstPrefetch               0      0.00%    100.00% # Type of FU issued
system.cpu.iq.FU_type_0::total                4156685                       # Type of FU issued
system.cpu.iq.fp_alu_accesses                   93560                       # Number of floating point alu accesses
system.cpu.iq.fp_inst_queue_reads              188463                       # Number of floating instruction queue reads
system.cpu.iq.fp_inst_queue_wakeup_accesses        89982                       # Number of floating instruction queue wakeup accesses
system.cpu.iq.fp_inst_queue_writes             137585                       # Number of floating instruction queue writes
system.cpu.iq.fu_busy_cnt                           0                       # FU busy when requested
system.cpu.iq.fu_busy_rate                          0                       # FU busy rate (busy events/executed inst)
system.cpu.iq.fu_full::No_OpClass                   0                       # attempts to use FU when none available
system.cpu.iq.fu_full::IntAlu                       0                       # attempts to use FU when none available
system.cpu.iq.fu_full::IntMult                      0                       # attempts to use FU when none available
system.cpu.iq.fu_full::IntDiv                       0                       # attempts to use FU when none available
system.cpu.iq.fu_full::FloatAdd                     0                       # attempts to use FU when none available
system.cpu.iq.fu_full::FloatCmp                     0                       # attempts to use FU when none available
system.cpu.iq.fu_full::FloatCvt                     0                       # attempts to use FU when none available
system.cpu.iq.fu_full::FloatMult                    0                       # attempts to use FU when none available
system.cpu.iq.fu_full::FloatMultAcc                 0                       # attempts to use FU when none available
system.cpu.iq.fu_full::FloatDiv                     0                       # attempts to use FU when none available
system.cpu.iq.fu_full::FloatMisc                    0                       # attempts to use FU when none available
system.cpu.iq.fu_full::FloatSqrt                    0                       # attempts to use FU when none available
system.cpu.iq.fu_full::SimdAdd                      0                       # attempts to use FU when none available
system.cpu.iq.fu_full::SimdAddAcc                   0                       # attempts to use FU when none available
system.cpu.iq.fu_full::SimdAlu                      0                       # attempts to use FU when none available
system.cpu.iq.fu_full::SimdCmp                      0                       # attempts to use FU when none available
system.cpu.iq.fu_full::SimdCvt                      0                       # attempts to use FU when none available
system.cpu.iq.fu_full::SimdMisc                     0                       # attempts to use FU when none available
system.cpu.iq.fu_full::SimdMult                     0                       # attempts to use FU when none available
system.cpu.iq.fu_full::SimdMultAcc                  0                       # attempts to use FU when none available
system.cpu.iq.fu_full::SimdShift                    0                       # attempts to use FU when none available
system.cpu.iq.fu_full::SimdShiftAcc                 0                       # attempts to use FU when none available
system.cpu.iq.fu_full::SimdDiv                      0                       # attempts to use FU when none available
system.cpu.iq.fu_full::SimdSqrt                     0                       # attempts to use FU when none available
system.cpu.iq.fu_full::SimdFloatAdd                 0                       # attempts to use FU when none available
system.cpu.iq.fu_full::SimdFloatAlu                 0                       # attempts to use FU when none available
system.cpu.iq.fu_full::SimdFloatCmp                 0                       # attempts to use FU when none available
system.cpu.iq.fu_full::SimdFloatCvt                 0                       # attempts to use FU when none available
system.cpu.iq.fu_full::SimdFloatDiv                 0                       # attempts to use FU when none available
system.cpu.iq.fu_full::SimdFloatMisc                0                       # attempts to use FU when none available
system.cpu.iq.fu_full::SimdFloatMult                0                       # attempts to use FU when none available
system.cpu.iq.fu_full::SimdFloatMultAcc             0                       # attempts to use FU when none available
system.cpu.iq.fu_full::SimdFloatSqrt                0                       # attempts to use FU when none available
system.cpu.iq.fu_full::SimdReduceAdd                0                       # attempts to use FU when none available
system.cpu.iq.fu_full::SimdReduceAlu                0                       # attempts to use FU when none available
system.cpu.iq.fu_full::SimdReduceCmp                0                       # attempts to use FU when none available
system.cpu.iq.fu_full::SimdFloatReduceAdd            0                       # attempts to use FU when none available
system.cpu.iq.fu_full::SimdFloatReduceCmp            0                       # attempts to use FU when none available
system.cpu.iq.fu_full::SimdAes                      0                       # attempts to use FU when none available
system.cpu.iq.fu_full::SimdAesMix                   0                       # attempts to use FU when none available
system.cpu.iq.fu_full::SimdSha1Hash                 0                       # attempts to use FU when none available
system.cpu.iq.fu_full::SimdSha1Hash2                0                       # attempts to use FU when none available
system.cpu.iq.fu_full::SimdSha256Hash               0                       # attempts to use FU when none available
system.cpu.iq.fu_full::SimdSha256Hash2              0                       # attempts to use FU when none available
system.cpu.iq.fu_full::SimdShaSigma2                0                       # attempts to use FU when none available
system.cpu.iq.fu_full::SimdShaSigma3                0                       # attempts to use FU when none available
system.cpu.iq.fu_full::SimdPredAlu                  0                       # attempts to use FU when none available
system.cpu.iq.fu_full::MemRead                      0                       # attempts to use FU when none available
system.cpu.iq.fu_full::MemWrite                     0                       # attempts to use FU when none available
system.cpu.iq.fu_full::FloatMemRead                 0                       # attempts to use FU when none available
system.cpu.iq.fu_full::FloatMemWrite                0                       # attempts to use FU when none available
system.cpu.iq.fu_full::IprAccess                    0                       # attempts to use FU when none available
system.cpu.iq.fu_full::InstPrefetch                 0                       # attempts to use FU when none available
system.cpu.iq.int_alu_accesses                4036174                       # Number of integer alu accesses
system.cpu.iq.int_inst_queue_reads           10711557                       # Number of integer instruction queue reads
system.cpu.iq.int_inst_queue_wakeup_accesses      4009952                       # Number of integer instruction queue wakeup accesses
system.cpu.iq.int_inst_queue_writes           5220253                       # Number of integer instruction queue writes
system.cpu.iq.iqInstsAdded                    4474692                       # Number of instructions added to the IQ (excludes non-spec)
system.cpu.iq.iqInstsIssued                   4156685                       # Number of instructions issued
system.cpu.iq.iqNonSpecInstsAdded                1151                       # Number of non-speculative instructions added to the IQ
system.cpu.iq.iqSquashedInstsExamined          881924                       # Number of squashed instructions iterated over during squash; mainly for profiling
system.cpu.iq.iqSquashedInstsIssued             18065                       # Number of squashed instructions issued
system.cpu.iq.iqSquashedNonSpecRemoved            391                       # Number of squashed non-spec instructions that were removed
system.cpu.iq.iqSquashedOperandsExamined      1314794                       # Number of squashed operands that are examined and possibly removed from graph
system.cpu.iq.issued_per_cycle::samples       2568589                       # Number of insts issued each cycle
system.cpu.iq.issued_per_cycle::mean         1.618276                       # Number of insts issued each cycle
system.cpu.iq.issued_per_cycle::stdev        1.669642                       # Number of insts issued each cycle
system.cpu.iq.issued_per_cycle::underflows            0      0.00%      0.00% # Number of insts issued each cycle
system.cpu.iq.issued_per_cycle::0             1164452     45.33%     45.33% # Number of insts issued each cycle
system.cpu.iq.issued_per_cycle::1              173342      6.75%     52.08% # Number of insts issued each cycle
system.cpu.iq.issued_per_cycle::2              299962     11.68%     63.76% # Number of insts issued each cycle
system.cpu.iq.issued_per_cycle::3              339913     13.23%     76.99% # Number of insts issued each cycle
system.cpu.iq.issued_per_cycle::4              590920     23.01%    100.00% # Number of insts issued each cycle
system.cpu.iq.issued_per_cycle::overflows            0      0.00%    100.00% # Number of insts issued each cycle
system.cpu.iq.issued_per_cycle::min_value            0                       # Number of insts issued each cycle
system.cpu.iq.issued_per_cycle::max_value            4                       # Number of insts issued each cycle
system.cpu.iq.issued_per_cycle::total         2568589                       # Number of insts issued each cycle
system.cpu.iq.rate                           1.521423                       # Inst issue rate
system.cpu.iq.vec_alu_accesses                      0                       # Number of vector alu accesses
system.cpu.iq.vec_inst_queue_reads                  0                       # Number of vector instruction queue reads
system.cpu.iq.vec_inst_queue_wakeup_accesses            0                       # Number of vector instruction queue wakeup accesses
system.cpu.iq.vec_inst_queue_writes                 0                       # Number of vector instruction queue writes
system.cpu.itb.rdAccesses                           0                       # TLB accesses on read requests
system.cpu.itb.rdMisses                             0                       # TLB misses on read requests
system.cpu.itb.wrAccesses                      241269                       # TLB accesses on write requests
system.cpu.itb.wrMisses                           361                       # TLB misses on write requests
system.cpu.memDep0.conflictingLoads              7791                       # Number of conflicting loads.
system.cpu.memDep0.conflictingStores             2316                       # Number of conflicting stores.
system.cpu.memDep0.insertedLoads               607183                       # Number of loads inserted to the mem dependence unit.
system.cpu.memDep0.insertedStores              202299                       # Number of stores inserted to the mem dependence unit.
system.cpu.misc_regfile_reads                 1553055                       # number of misc regfile reads
system.cpu.misc_regfile_writes                    702                       # number of misc regfile writes
system.cpu.numCycles                          2732103                       # number of cpu cycles simulated
system.cpu.numWorkItemsCompleted                    0                       # number of work items this cpu completed
system.cpu.numWorkItemsStarted                      0                       # number of work items this cpu started
system.cpu.process.numSyscalls                     57                       # Number of system calls
system.cpu.rename.BlockCycles                  837451                       # Number of cycles rename is blocking
system.cpu.rename.CommittedMaps               4922372                       # Number of HB maps that are committed
system.cpu.rename.FullRegisterEvents               54                       # Number of times there has been no free registers
system.cpu.rename.IQFullEvents                  46629                       # Number of times rename has blocked due to IQ full
system.cpu.rename.IdleCycles                   346847                       # Number of cycles rename is idle
system.cpu.rename.LQFullEvents                  14290                       # Number of times rename has blocked due to LQ full
system.cpu.rename.ROBFullEvents                  4552                       # Number of times rename has blocked due to ROB full
system.cpu.rename.RenameLookups              12065549                       # Number of register rename lookups that rename has made
system.cpu.rename.RenamedInsts                4617326                       # Number of instructions processed by rename
system.cpu.rename.RenamedOperands             6312655                       # Number of destination operands rename has renamed
system.cpu.rename.RunCycles                   1169087                       # Number of cycles rename is running
system.cpu.rename.SQFullEvents                  71718                       # Number of times rename has blocked due to SQ full
system.cpu.rename.SquashCycles                  24508                       # Number of cycles rename is squashing
system.cpu.rename.UnblockCycles                170114                       # Number of cycles rename is unblocking
system.cpu.rename.UndoneMaps                  1390257                       # Number of HB maps that are undone due to squashing
system.cpu.rename.fp_rename_lookups            162948                       # Number of floating rename lookups
system.cpu.rename.int_rename_lookups          7330865                       # Number of integer rename lookups
system.cpu.rename.serializeStallCycles          20582                       # count of cycles rename stalled for serializing inst
system.cpu.rename.serializingInsts                904                       # count of serializing insts renamed
system.cpu.rename.skidInsts                    207669                       # count of insts added to the skid buffer
system.cpu.rename.tempSerializingInsts            959                       # count of temporary serializing insts renamed
system.cpu.rob.rob_reads                      6207631                       # The number of ROB reads
system.cpu.rob.rob_writes                     9193115                       # The number of ROB writes
system.cpu.timesIdled                            1637                       # Number of times that the entire CPU went into an idle state and unscheduled itself
system.l2bus.snoop_filter.hit_multi_requests           14                       # Number of requests hitting in the snoop filter with multiple (>1) holders of the requested data.
system.l2bus.snoop_filter.hit_multi_snoops            0                       # Number of snoops hitting in the snoop filter with multiple (>1) holders of the requested data.
system.l2bus.snoop_filter.hit_single_requests        18586                       # Number of requests hitting in the snoop filter with a single holder of the requested data.
system.l2bus.snoop_filter.hit_single_snoops          440                       # Number of snoops hitting in the snoop filter with a single holder of the requested data.
system.l2bus.snoop_filter.tot_requests          38452                       # Total number of requests made to the snoop filter.
system.l2bus.snoop_filter.tot_snoops              440                       # Total number of snoops made to the snoop filter.
system.l2cache.prefetcher.num_hwpf_issued          664                       # number of hwpf issued
system.l2cache.prefetcher.pfBufferHit               0                       # number of redundant prefetches already in prefetch queue
system.l2cache.prefetcher.pfIdentified            664                       # number of prefetch candidates identified
system.l2cache.prefetcher.pfInCache                 0                       # number of redundant prefetches already in cache/mshr dropped
system.l2cache.prefetcher.pfRemovedFull             0                       # number of prefetches dropped due to prefetch queue size
system.l2cache.prefetcher.pfSpanPage               92                       # number of prefetches that crossed the page
system.membus.snoop_filter.hit_multi_requests            0                       # Number of requests hitting in the snoop filter with multiple (>1) holders of the requested data.
system.membus.snoop_filter.hit_multi_snoops            0                       # Number of snoops hitting in the snoop filter with multiple (>1) holders of the requested data.
system.membus.snoop_filter.hit_single_requests         9435                       # Number of requests hitting in the snoop filter with a single holder of the requested data.
system.membus.snoop_filter.hit_single_snoops            0                       # Number of snoops hitting in the snoop filter with a single holder of the requested data.
system.membus.snoop_filter.tot_requests         22995                       # Total number of requests made to the snoop filter.
system.membus.snoop_filter.tot_snoops               0                       # Total number of snoops made to the snoop filter.
system.membus.pwrStateResidencyTicks::UNDEFINED   1092840800                       # Cumulative time (in ticks) in various power states
system.membus.trans_dist::ReadResp              12234                       # Transaction distribution
system.membus.trans_dist::WritebackDirty         1350                       # Transaction distribution
system.membus.trans_dist::CleanEvict             8085                       # Transaction distribution
system.membus.trans_dist::ReadExReq              1326                       # Transaction distribution
system.membus.trans_dist::ReadExResp             1326                       # Transaction distribution
system.membus.trans_dist::ReadSharedReq         12234                       # Transaction distribution
system.membus.pkt_count_system.l2cache.mem_side::system.mem_ctrl.port        36555                       # Packet count per connected master and slave (bytes)
system.membus.pkt_count_system.l2cache.mem_side::total        36555                       # Packet count per connected master and slave (bytes)
system.membus.pkt_count::total                  36555                       # Packet count per connected master and slave (bytes)
system.membus.pkt_size_system.l2cache.mem_side::system.mem_ctrl.port       954240                       # Cumulative packet size per connected master and slave (bytes)
system.membus.pkt_size_system.l2cache.mem_side::total       954240                       # Cumulative packet size per connected master and slave (bytes)
system.membus.pkt_size::total                  954240                       # Cumulative packet size per connected master and slave (bytes)
system.membus.snoops                                0                       # Total snoops (count)
system.membus.snoopTraffic                          0                       # Total snoop traffic (bytes)
system.membus.snoop_fanout::samples             13560                       # Request fanout histogram
system.membus.snoop_fanout::mean                    0                       # Request fanout histogram
system.membus.snoop_fanout::stdev                   0                       # Request fanout histogram
system.membus.snoop_fanout::underflows              0      0.00%      0.00% # Request fanout histogram
system.membus.snoop_fanout::0                   13560    100.00%    100.00% # Request fanout histogram
system.membus.snoop_fanout::1                       0      0.00%    100.00% # Request fanout histogram
system.membus.snoop_fanout::overflows               0      0.00%    100.00% # Request fanout histogram
system.membus.snoop_fanout::min_value               0                       # Request fanout histogram
system.membus.snoop_fanout::max_value               0                       # Request fanout histogram
system.membus.snoop_fanout::total               13560                       # Request fanout histogram
system.membus.reqLayer2.occupancy            11383049                       # Layer occupancy (ticks)
system.membus.reqLayer2.utilization               1.0                       # Layer utilization (%)
system.membus.respLayer0.occupancy           29452051                       # Layer occupancy (ticks)
system.membus.respLayer0.utilization              2.7                       # Layer utilization (%)
system.l2bus.pwrStateResidencyTicks::UNDEFINED   1092840800                       # Cumulative time (in ticks) in various power states
system.l2bus.trans_dist::ReadResp               17777                       # Transaction distribution
system.l2bus.trans_dist::WritebackDirty          4125                       # Transaction distribution
system.l2bus.trans_dist::CleanEvict             23984                       # Transaction distribution
system.l2bus.trans_dist::HardPFReq                933                       # Transaction distribution
system.l2bus.trans_dist::UpgradeReq                 1                       # Transaction distribution
system.l2bus.trans_dist::UpgradeResp                1                       # Transaction distribution
system.l2bus.trans_dist::ReadExReq               2089                       # Transaction distribution
system.l2bus.trans_dist::ReadExResp              2089                       # Transaction distribution
system.l2bus.trans_dist::ReadSharedReq          17777                       # Transaction distribution
system.l2bus.pkt_count_system.cpu.icache.mem_side::system.l2cache.cpu_side         8466                       # Packet count per connected master and slave (bytes)
system.l2bus.pkt_count_system.cpu.dcache.mem_side::system.l2cache.cpu_side        49847                       # Packet count per connected master and slave (bytes)
system.l2bus.pkt_count::total                   58313                       # Packet count per connected master and slave (bytes)
system.l2bus.pkt_size_system.cpu.icache.mem_side::system.l2cache.cpu_side       186048                       # Cumulative packet size per connected master and slave (bytes)
system.l2bus.pkt_size_system.cpu.dcache.mem_side::system.l2cache.cpu_side      1262592                       # Cumulative packet size per connected master and slave (bytes)
system.l2bus.pkt_size::total                  1448640                       # Cumulative packet size per connected master and slave (bytes)
system.l2bus.snoops                             10463                       # Total snoops (count)
system.l2bus.snoopTraffic                       86784                       # Total snoop traffic (bytes)
system.l2bus.snoop_fanout::samples              30324                       # Request fanout histogram
system.l2bus.snoop_fanout::mean              0.015005                       # Request fanout histogram
system.l2bus.snoop_fanout::stdev             0.121573                       # Request fanout histogram
system.l2bus.snoop_fanout::underflows               0      0.00%      0.00% # Request fanout histogram
system.l2bus.snoop_fanout::0                    29869     98.50%     98.50% # Request fanout histogram
system.l2bus.snoop_fanout::1                      455      1.50%    100.00% # Request fanout histogram
system.l2bus.snoop_fanout::2                        0      0.00%    100.00% # Request fanout histogram
system.l2bus.snoop_fanout::overflows                0      0.00%    100.00% # Request fanout histogram
system.l2bus.snoop_fanout::min_value                0                       # Request fanout histogram
system.l2bus.snoop_fanout::max_value                1                       # Request fanout histogram
system.l2bus.snoop_fanout::total                30324                       # Request fanout histogram
system.l2bus.respLayer1.occupancy            20349598                       # Layer occupancy (ticks)
system.l2bus.respLayer1.utilization               1.9                       # Layer utilization (%)
system.l2bus.reqLayer0.occupancy             19055782                       # Layer occupancy (ticks)
system.l2bus.reqLayer0.utilization                1.7                       # Layer utilization (%)
system.l2bus.respLayer0.occupancy             3490800                       # Layer occupancy (ticks)
system.l2bus.respLayer0.utilization               0.3                       # Layer utilization (%)
system.clk_domain.clock                           400                       # Clock period in ticks
system.clk_domain.voltage_domain.voltage            1                       # Voltage in Volts
system.cpu.pwrStateResidencyTicks::ON      1092840800                       # Cumulative time (in ticks) in various power states
system.cpu.icache.pwrStateResidencyTicks::UNDEFINED   1092840800                       # Cumulative time (in ticks) in various power states
system.cpu.icache.demand_hits::.cpu.inst       237537                       # number of demand (read+write) hits
system.cpu.icache.demand_hits::total           237537                       # number of demand (read+write) hits
system.cpu.icache.overall_hits::.cpu.inst       237537                       # number of overall hits
system.cpu.icache.overall_hits::total          237537                       # number of overall hits
system.cpu.icache.demand_misses::.cpu.inst         3623                       # number of demand (read+write) misses
system.cpu.icache.demand_misses::total           3623                       # number of demand (read+write) misses
system.cpu.icache.overall_misses::.cpu.inst         3623                       # number of overall misses
system.cpu.icache.overall_misses::total          3623                       # number of overall misses
system.cpu.icache.demand_miss_latency::.cpu.inst    179012000                       # number of demand (read+write) miss cycles
system.cpu.icache.demand_miss_latency::total    179012000                       # number of demand (read+write) miss cycles
system.cpu.icache.overall_miss_latency::.cpu.inst    179012000                       # number of overall miss cycles
system.cpu.icache.overall_miss_latency::total    179012000                       # number of overall miss cycles
system.cpu.icache.demand_accesses::.cpu.inst       241160                       # number of demand (read+write) accesses
system.cpu.icache.demand_accesses::total       241160                       # number of demand (read+write) accesses
system.cpu.icache.overall_accesses::.cpu.inst       241160                       # number of overall (read+write) accesses
system.cpu.icache.overall_accesses::total       241160                       # number of overall (read+write) accesses
system.cpu.icache.demand_miss_rate::.cpu.inst     0.015023                       # miss rate for demand accesses
system.cpu.icache.demand_miss_rate::total     0.015023                       # miss rate for demand accesses
system.cpu.icache.overall_miss_rate::.cpu.inst     0.015023                       # miss rate for overall accesses
system.cpu.icache.overall_miss_rate::total     0.015023                       # miss rate for overall accesses
system.cpu.icache.demand_avg_miss_latency::.cpu.inst 49409.881314                       # average overall miss latency
system.cpu.icache.demand_avg_miss_latency::total 49409.881314                       # average overall miss latency
system.cpu.icache.overall_avg_miss_latency::.cpu.inst 49409.881314                       # average overall miss latency
system.cpu.icache.overall_avg_miss_latency::total 49409.881314                       # average overall miss latency
system.cpu.icache.blocked_cycles::no_mshrs           71                       # number of cycles access was blocked
system.cpu.icache.blocked_cycles::no_targets            0                       # number of cycles access was blocked
system.cpu.icache.blocked::no_mshrs                 3                       # number of cycles access was blocked
system.cpu.icache.blocked::no_targets               0                       # number of cycles access was blocked
system.cpu.icache.avg_blocked_cycles::no_mshrs    23.666667                       # average number of cycles each access was blocked
system.cpu.icache.avg_blocked_cycles::no_targets          nan                       # average number of cycles each access was blocked
system.cpu.icache.writebacks::.writebacks            2                       # number of writebacks
system.cpu.icache.writebacks::total                 2                       # number of writebacks
system.cpu.icache.demand_mshr_hits::.cpu.inst          714                       # number of demand (read+write) MSHR hits
system.cpu.icache.demand_mshr_hits::total          714                       # number of demand (read+write) MSHR hits
system.cpu.icache.overall_mshr_hits::.cpu.inst          714                       # number of overall MSHR hits
system.cpu.icache.overall_mshr_hits::total          714                       # number of overall MSHR hits
system.cpu.icache.demand_mshr_misses::.cpu.inst         2909                       # number of demand (read+write) MSHR misses
system.cpu.icache.demand_mshr_misses::total         2909                       # number of demand (read+write) MSHR misses
system.cpu.icache.overall_mshr_misses::.cpu.inst         2909                       # number of overall MSHR misses
system.cpu.icache.overall_mshr_misses::total         2909                       # number of overall MSHR misses
system.cpu.icache.demand_mshr_miss_latency::.cpu.inst    143448000                       # number of demand (read+write) MSHR miss cycles
system.cpu.icache.demand_mshr_miss_latency::total    143448000                       # number of demand (read+write) MSHR miss cycles
system.cpu.icache.overall_mshr_miss_latency::.cpu.inst    143448000                       # number of overall MSHR miss cycles
system.cpu.icache.overall_mshr_miss_latency::total    143448000                       # number of overall MSHR miss cycles
system.cpu.icache.demand_mshr_miss_rate::.cpu.inst     0.012063                       # mshr miss rate for demand accesses
system.cpu.icache.demand_mshr_miss_rate::total     0.012063                       # mshr miss rate for demand accesses
system.cpu.icache.overall_mshr_miss_rate::.cpu.inst     0.012063                       # mshr miss rate for overall accesses
system.cpu.icache.overall_mshr_miss_rate::total     0.012063                       # mshr miss rate for overall accesses
system.cpu.icache.demand_avg_mshr_miss_latency::.cpu.inst 49311.790993                       # average overall mshr miss latency
system.cpu.icache.demand_avg_mshr_miss_latency::total 49311.790993                       # average overall mshr miss latency
system.cpu.icache.overall_avg_mshr_miss_latency::.cpu.inst 49311.790993                       # average overall mshr miss latency
system.cpu.icache.overall_avg_mshr_miss_latency::total 49311.790993                       # average overall mshr miss latency
system.cpu.icache.replacements                   2652                       # number of replacements
system.cpu.icache.ReadReq_hits::.cpu.inst       237537                       # number of ReadReq hits
system.cpu.icache.ReadReq_hits::total          237537                       # number of ReadReq hits
system.cpu.icache.ReadReq_misses::.cpu.inst         3623                       # number of ReadReq misses
system.cpu.icache.ReadReq_misses::total          3623                       # number of ReadReq misses
system.cpu.icache.ReadReq_miss_latency::.cpu.inst    179012000                       # number of ReadReq miss cycles
system.cpu.icache.ReadReq_miss_latency::total    179012000                       # number of ReadReq miss cycles
system.cpu.icache.ReadReq_accesses::.cpu.inst       241160                       # number of ReadReq accesses(hits+misses)
system.cpu.icache.ReadReq_accesses::total       241160                       # number of ReadReq accesses(hits+misses)
system.cpu.icache.ReadReq_miss_rate::.cpu.inst     0.015023                       # miss rate for ReadReq accesses
system.cpu.icache.ReadReq_miss_rate::total     0.015023                       # miss rate for ReadReq accesses
system.cpu.icache.ReadReq_avg_miss_latency::.cpu.inst 49409.881314                       # average ReadReq miss latency
system.cpu.icache.ReadReq_avg_miss_latency::total 49409.881314                       # average ReadReq miss latency
system.cpu.icache.ReadReq_mshr_hits::.cpu.inst          714                       # number of ReadReq MSHR hits
system.cpu.icache.ReadReq_mshr_hits::total          714                       # number of ReadReq MSHR hits
system.cpu.icache.ReadReq_mshr_misses::.cpu.inst         2909                       # number of ReadReq MSHR misses
system.cpu.icache.ReadReq_mshr_misses::total         2909                       # number of ReadReq MSHR misses
system.cpu.icache.ReadReq_mshr_miss_latency::.cpu.inst    143448000                       # number of ReadReq MSHR miss cycles
system.cpu.icache.ReadReq_mshr_miss_latency::total    143448000                       # number of ReadReq MSHR miss cycles
system.cpu.icache.ReadReq_mshr_miss_rate::.cpu.inst     0.012063                       # mshr miss rate for ReadReq accesses
system.cpu.icache.ReadReq_mshr_miss_rate::total     0.012063                       # mshr miss rate for ReadReq accesses
system.cpu.icache.ReadReq_avg_mshr_miss_latency::.cpu.inst 49311.790993                       # average ReadReq mshr miss latency
system.cpu.icache.ReadReq_avg_mshr_miss_latency::total 49311.790993                       # average ReadReq mshr miss latency
system.cpu.icache.prefetcher.pwrStateResidencyTicks::UNDEFINED   1092840800                       # Cumulative time (in ticks) in various power states
system.cpu.icache.tags.pwrStateResidencyTicks::UNDEFINED   1092840800                       # Cumulative time (in ticks) in various power states
system.cpu.icache.tags.tagsinuse           253.483818                       # Cycle average of tags in use
system.cpu.icache.tags.total_refs              232118                       # Total number of references to valid blocks.
system.cpu.icache.tags.sampled_refs              2653                       # Sample count of references to valid blocks.
system.cpu.icache.tags.avg_refs             87.492650                       # Average number of references to valid blocks.
system.cpu.icache.tags.warmup_cycle             66400                       # Cycle when the warmup percentage was hit.
system.cpu.icache.tags.occ_blocks::.cpu.inst   253.483818                       # Average occupied blocks per requestor
system.cpu.icache.tags.occ_percent::.cpu.inst     0.990171                       # Average percentage of cache occupancy
system.cpu.icache.tags.occ_percent::total     0.990171                       # Average percentage of cache occupancy
system.cpu.icache.tags.occ_task_id_blocks::1024          256                       # Occupied blocks per task id
system.cpu.icache.tags.age_task_id_blocks_1024::0          108                       # Occupied blocks per task id
system.cpu.icache.tags.age_task_id_blocks_1024::1          133                       # Occupied blocks per task id
system.cpu.icache.tags.age_task_id_blocks_1024::2           14                       # Occupied blocks per task id
system.cpu.icache.tags.age_task_id_blocks_1024::3            1                       # Occupied blocks per task id
system.cpu.icache.tags.occ_task_id_percent::1024            1                       # Percentage of cache occupancy per task id
system.cpu.icache.tags.tag_accesses            485229                       # Number of tag accesses
system.cpu.icache.tags.data_accesses           485229                       # Number of data accesses
system.cpu.dtb.walker.pwrStateResidencyTicks::UNDEFINED   1092840800                       # Cumulative time (in ticks) in various power states
system.cpu.interrupts.clk_domain.clock           6400                       # Clock period in ticks
system.cpu.itb.walker.pwrStateResidencyTicks::UNDEFINED   1092840800                       # Cumulative time (in ticks) in various power states
system.cpu.dcache.pwrStateResidencyTicks::UNDEFINED   1092840800                       # Cumulative time (in ticks) in various power states
system.cpu.dcache.demand_hits::.cpu.data       672475                       # number of demand (read+write) hits
system.cpu.dcache.demand_hits::total           672475                       # number of demand (read+write) hits
system.cpu.dcache.overall_hits::.cpu.data       672475                       # number of overall hits
system.cpu.dcache.overall_hits::total          672475                       # number of overall hits
system.cpu.dcache.demand_misses::.cpu.data        34555                       # number of demand (read+write) misses
system.cpu.dcache.demand_misses::total          34555                       # number of demand (read+write) misses
system.cpu.dcache.overall_misses::.cpu.data        34555                       # number of overall misses
system.cpu.dcache.overall_misses::total         34555                       # number of overall misses
system.cpu.dcache.demand_miss_latency::.cpu.data   1662800800                       # number of demand (read+write) miss cycles
system.cpu.dcache.demand_miss_latency::total   1662800800                       # number of demand (read+write) miss cycles
system.cpu.dcache.overall_miss_latency::.cpu.data   1662800800                       # number of overall miss cycles
system.cpu.dcache.overall_miss_latency::total   1662800800                       # number of overall miss cycles
system.cpu.dcache.demand_accesses::.cpu.data       707030                       # number of demand (read+write) accesses
system.cpu.dcache.demand_accesses::total       707030                       # number of demand (read+write) accesses
system.cpu.dcache.overall_accesses::.cpu.data       707030                       # number of overall (read+write) accesses
system.cpu.dcache.overall_accesses::total       707030                       # number of overall (read+write) accesses
system.cpu.dcache.demand_miss_rate::.cpu.data     0.048873                       # miss rate for demand accesses
system.cpu.dcache.demand_miss_rate::total     0.048873                       # miss rate for demand accesses
system.cpu.dcache.overall_miss_rate::.cpu.data     0.048873                       # miss rate for overall accesses
system.cpu.dcache.overall_miss_rate::total     0.048873                       # miss rate for overall accesses
system.cpu.dcache.demand_avg_miss_latency::.cpu.data 48120.410939                       # average overall miss latency
system.cpu.dcache.demand_avg_miss_latency::total 48120.410939                       # average overall miss latency
system.cpu.dcache.overall_avg_miss_latency::.cpu.data 48120.410939                       # average overall miss latency
system.cpu.dcache.overall_avg_miss_latency::total 48120.410939                       # average overall miss latency
system.cpu.dcache.blocked_cycles::no_mshrs        28574                       # number of cycles access was blocked
system.cpu.dcache.blocked_cycles::no_targets          155                       # number of cycles access was blocked
system.cpu.dcache.blocked::no_mshrs               771                       # number of cycles access was blocked
system.cpu.dcache.blocked::no_targets               2                       # number of cycles access was blocked
system.cpu.dcache.avg_blocked_cycles::no_mshrs    37.060960                       # average number of cycles each access was blocked
system.cpu.dcache.avg_blocked_cycles::no_targets    77.500000                       # average number of cycles each access was blocked
system.cpu.dcache.unused_prefetches              1778                       # number of HardPF blocks evicted w/o reference
system.cpu.dcache.writebacks::.writebacks         2773                       # number of writebacks
system.cpu.dcache.writebacks::total              2773                       # number of writebacks
system.cpu.dcache.demand_mshr_hits::.cpu.data        21999                       # number of demand (read+write) MSHR hits
system.cpu.dcache.demand_mshr_hits::total        21999                       # number of demand (read+write) MSHR hits
system.cpu.dcache.overall_mshr_hits::.cpu.data        21999                       # number of overall MSHR hits
system.cpu.dcache.overall_mshr_hits::total        21999                       # number of overall MSHR hits
system.cpu.dcache.demand_mshr_misses::.cpu.data        12556                       # number of demand (read+write) MSHR misses
system.cpu.dcache.demand_mshr_misses::total        12556                       # number of demand (read+write) MSHR misses
system.cpu.dcache.overall_mshr_misses::.cpu.data        12556                       # number of overall MSHR misses
system.cpu.dcache.overall_mshr_misses::.cpu.dcache.prefetcher         4402                       # number of overall MSHR misses
system.cpu.dcache.overall_mshr_misses::total        16958                       # number of overall MSHR misses
system.cpu.dcache.demand_mshr_miss_latency::.cpu.data    573820400                       # number of demand (read+write) MSHR miss cycles
system.cpu.dcache.demand_mshr_miss_latency::total    573820400                       # number of demand (read+write) MSHR miss cycles
system.cpu.dcache.overall_mshr_miss_latency::.cpu.data    573820400                       # number of overall MSHR miss cycles
system.cpu.dcache.overall_mshr_miss_latency::.cpu.dcache.prefetcher    252392856                       # number of overall MSHR miss cycles
system.cpu.dcache.overall_mshr_miss_latency::total    826213256                       # number of overall MSHR miss cycles
system.cpu.dcache.demand_mshr_miss_rate::.cpu.data     0.017759                       # mshr miss rate for demand accesses
system.cpu.dcache.demand_mshr_miss_rate::total     0.017759                       # mshr miss rate for demand accesses
system.cpu.dcache.overall_mshr_miss_rate::.cpu.data     0.017759                       # mshr miss rate for overall accesses
system.cpu.dcache.overall_mshr_miss_rate::.cpu.dcache.prefetcher          inf                       # mshr miss rate for overall accesses
system.cpu.dcache.overall_mshr_miss_rate::total     0.023985                       # mshr miss rate for overall accesses
system.cpu.dcache.demand_avg_mshr_miss_latency::.cpu.data 45700.892004                       # average overall mshr miss latency
system.cpu.dcache.demand_avg_mshr_miss_latency::total 45700.892004                       # average overall mshr miss latency
system.cpu.dcache.overall_avg_mshr_miss_latency::.cpu.data 45700.892004                       # average overall mshr miss latency
system.cpu.dcache.overall_avg_mshr_miss_latency::.cpu.dcache.prefetcher 57335.950931                       # average overall mshr miss latency
system.cpu.dcache.overall_avg_mshr_miss_latency::total 48721.149664                       # average overall mshr miss latency
system.cpu.dcache.replacements                  15933                       # number of replacements
system.cpu.dcache.ReadReq_hits::.cpu.data       501900                       # number of ReadReq hits
system.cpu.dcache.ReadReq_hits::total          501900                       # number of ReadReq hits
system.cpu.dcache.ReadReq_misses::.cpu.data        32426                       # number of ReadReq misses
system.cpu.dcache.ReadReq_misses::total         32426                       # number of ReadReq misses
system.cpu.dcache.ReadReq_miss_latency::.cpu.data   1558883600                       # number of ReadReq miss cycles
system.cpu.dcache.ReadReq_miss_latency::total   1558883600                       # number of ReadReq miss cycles
system.cpu.dcache.ReadReq_accesses::.cpu.data       534326                       # number of ReadReq accesses(hits+misses)
system.cpu.dcache.ReadReq_accesses::total       534326                       # number of ReadReq accesses(hits+misses)
system.cpu.dcache.ReadReq_miss_rate::.cpu.data     0.060686                       # miss rate for ReadReq accesses
system.cpu.dcache.ReadReq_miss_rate::total     0.060686                       # miss rate for ReadReq accesses
system.cpu.dcache.ReadReq_avg_miss_latency::.cpu.data 48075.112564                       # average ReadReq miss latency
system.cpu.dcache.ReadReq_avg_miss_latency::total 48075.112564                       # average ReadReq miss latency
system.cpu.dcache.ReadReq_mshr_hits::.cpu.data        21959                       # number of ReadReq MSHR hits
system.cpu.dcache.ReadReq_mshr_hits::total        21959                       # number of ReadReq MSHR hits
system.cpu.dcache.ReadReq_mshr_misses::.cpu.data        10467                       # number of ReadReq MSHR misses
system.cpu.dcache.ReadReq_mshr_misses::total        10467                       # number of ReadReq MSHR misses
system.cpu.dcache.ReadReq_mshr_miss_latency::.cpu.data    472973600                       # number of ReadReq MSHR miss cycles
system.cpu.dcache.ReadReq_mshr_miss_latency::total    472973600                       # number of ReadReq MSHR miss cycles
system.cpu.dcache.ReadReq_mshr_miss_rate::.cpu.data     0.019589                       # mshr miss rate for ReadReq accesses
system.cpu.dcache.ReadReq_mshr_miss_rate::total     0.019589                       # mshr miss rate for ReadReq accesses
system.cpu.dcache.ReadReq_avg_mshr_miss_latency::.cpu.data 45187.121429                       # average ReadReq mshr miss latency
system.cpu.dcache.ReadReq_avg_mshr_miss_latency::total 45187.121429                       # average ReadReq mshr miss latency
system.cpu.dcache.WriteReq_hits::.cpu.data       170575                       # number of WriteReq hits
system.cpu.dcache.WriteReq_hits::total         170575                       # number of WriteReq hits
system.cpu.dcache.WriteReq_misses::.cpu.data         2129                       # number of WriteReq misses
system.cpu.dcache.WriteReq_misses::total         2129                       # number of WriteReq misses
system.cpu.dcache.WriteReq_miss_latency::.cpu.data    103917200                       # number of WriteReq miss cycles
system.cpu.dcache.WriteReq_miss_latency::total    103917200                       # number of WriteReq miss cycles
system.cpu.dcache.WriteReq_accesses::.cpu.data       172704                       # number of WriteReq accesses(hits+misses)
system.cpu.dcache.WriteReq_accesses::total       172704                       # number of WriteReq accesses(hits+misses)
system.cpu.dcache.WriteReq_miss_rate::.cpu.data     0.012327                       # miss rate for WriteReq accesses
system.cpu.dcache.WriteReq_miss_rate::total     0.012327                       # miss rate for WriteReq accesses
system.cpu.dcache.WriteReq_avg_miss_latency::.cpu.data 48810.333490                       # average WriteReq miss latency
system.cpu.dcache.WriteReq_avg_miss_latency::total 48810.333490                       # average WriteReq miss latency
system.cpu.dcache.WriteReq_mshr_hits::.cpu.data           40                       # number of WriteReq MSHR hits
[...]
system.l2cache.overall_mshr_miss_latency::total     23385146                       # number of overall MSHR miss cycles
system.l2cache.demand_mshr_miss_rate::.cpu.inst     0.517084                       # mshr miss rate for demand accesses
system.l2cache.demand_mshr_miss_rate::.cpu.data     0.534562                       # mshr miss rate for demand accesses
system.l2cache.demand_mshr_miss_rate::.cpu.dcache.prefetcher     0.781250                       # mshr miss rate for demand accesses
system.l2cache.demand_mshr_miss_rate::total     0.545833                       # mshr miss rate for demand accesses
system.l2cache.overall_mshr_miss_rate::.cpu.inst     0.517084                       # mshr miss rate for overall accesses
system.l2cache.overall_mshr_miss_rate::.cpu.data     0.534562                       # mshr miss rate for overall accesses
system.l2cache.overall_mshr_miss_rate::.cpu.dcache.prefetcher     0.781250                       # mshr miss rate for overall accesses
system.l2cache.overall_mshr_miss_rate::.l2cache.prefetcher          inf                       # mshr miss rate for overall accesses
system.l2cache.overall_mshr_miss_rate::total     0.548611                       # mshr miss rate for overall accesses
system.l2cache.demand_avg_mshr_miss_latency::.cpu.inst 59057.268722                       # average overall mshr miss latency
system.l2cache.demand_avg_mshr_miss_latency::.cpu.data 59355.172414                       # average overall mshr miss latency
system.l2cache.demand_avg_mshr_miss_latency::.cpu.dcache.prefetcher 59414.980000                       # average overall mshr miss latency
system.l2cache.demand_avg_mshr_miss_latency::total 59190.709924                       # average overall mshr miss latency
system.l2cache.overall_avg_mshr_miss_latency::.cpu.inst 59057.268722                       # average overall mshr miss latency
system.l2cache.overall_avg_mshr_miss_latency::.cpu.data 59355.172414                       # average overall mshr miss latency
system.l2cache.overall_avg_mshr_miss_latency::.cpu.dcache.prefetcher 59414.980000                       # average overall mshr miss latency
system.l2cache.overall_avg_mshr_miss_latency::.l2cache.prefetcher 61598.500000                       # average overall mshr miss latency
system.l2cache.overall_avg_mshr_miss_latency::total 59202.901266                       # average overall mshr miss latency
system.l2cache.replacements                       404                       # number of replacements
system.l2cache.WritebackDirty_hits::.writebacks           74                       # number of WritebackDirty hits
system.l2cache.WritebackDirty_hits::total           74                       # number of WritebackDirty hits
system.l2cache.WritebackDirty_accesses::.writebacks           74                       # number of WritebackDirty accesses(hits+misses)
system.l2cache.WritebackDirty_accesses::total           74                       # number of WritebackDirty accesses(hits+misses)
system.l2cache.CleanEvict_mshr_misses::.writebacks           10                       # number of CleanEvict MSHR misses
system.l2cache.CleanEvict_mshr_misses::total           10                       # number of CleanEvict MSHR misses
system.l2cache.CleanEvict_mshr_miss_rate::.writebacks          inf                       # mshr miss rate for CleanEvict accesses
system.l2cache.CleanEvict_mshr_miss_rate::total          inf                       # mshr miss rate for CleanEvict accesses
system.l2cache.HardPFReq_mshr_misses::.l2cache.prefetcher            2                       # number of HardPFReq MSHR misses
system.l2cache.HardPFReq_mshr_misses::total            2                       # number of HardPFReq MSHR misses
system.l2cache.HardPFReq_mshr_miss_latency::.l2cache.prefetcher       123197                       # number of HardPFReq MSHR miss cycles
system.l2cache.HardPFReq_mshr_miss_latency::total       123197                       # number of HardPFReq MSHR miss cycles
system.l2cache.HardPFReq_mshr_miss_rate::.l2cache.prefetcher          inf                       # mshr miss rate for HardPFReq accesses
system.l2cache.HardPFReq_mshr_miss_rate::total          inf                       # mshr miss rate for HardPFReq accesses
system.l2cache.HardPFReq_avg_mshr_miss_latency::.l2cache.prefetcher 61598.500000                       # average HardPFReq mshr miss latency
system.l2cache.HardPFReq_avg_mshr_miss_latency::total 61598.500000                       # average HardPFReq mshr miss latency
system.l2cache.ReadExReq_hits::.cpu.data            3                       # number of ReadExReq hits
system.l2cache.ReadExReq_hits::total                3                       # number of ReadExReq hits
system.l2cache.ReadExReq_misses::.cpu.data            6                       # number of ReadExReq misses
system.l2cache.ReadExReq_misses::total              6                       # number of ReadExReq misses
system.l2cache.ReadExReq_miss_latency::.cpu.data       378000                       # number of ReadExReq miss cycles
system.l2cache.ReadExReq_miss_latency::total       378000                       # number of ReadExReq miss cycles
system.l2cache.ReadExReq_accesses::.cpu.data            9                       # number of ReadExReq accesses(hits+misses)
system.l2cache.ReadExReq_accesses::total            9                       # number of ReadExReq accesses(hits+misses)
system.l2cache.ReadExReq_miss_rate::.cpu.data     0.666667                       # miss rate for ReadExReq accesses
system.l2cache.ReadExReq_miss_rate::total     0.666667                       # miss rate for ReadExReq accesses
system.l2cache.ReadExReq_avg_miss_latency::.cpu.data        63000                       # average ReadExReq miss latency
system.l2cache.ReadExReq_avg_miss_latency::total        63000                       # average ReadExReq miss latency
system.l2cache.ReadExReq_mshr_misses::.cpu.data            6                       # number of ReadExReq MSHR misses
system.l2cache.ReadExReq_mshr_misses::total            6                       # number of ReadExReq MSHR misses
system.l2cache.ReadExReq_mshr_miss_latency::.cpu.data       330000                       # number of ReadExReq MSHR miss cycles
system.l2cache.ReadExReq_mshr_miss_latency::total       330000                       # number of ReadExReq MSHR miss cycles
system.l2cache.ReadExReq_mshr_miss_rate::.cpu.data     0.666667                       # mshr miss rate for ReadExReq accesses
system.l2cache.ReadExReq_mshr_miss_rate::total     0.666667                       # mshr miss rate for ReadExReq accesses
system.l2cache.ReadExReq_avg_mshr_miss_latency::.cpu.data        55000                       # average ReadExReq mshr miss latency
system.l2cache.ReadExReq_avg_mshr_miss_latency::total        55000                       # average ReadExReq mshr miss latency
system.l2cache.ReadSharedReq_hits::.cpu.inst          212                       # number of ReadSharedReq hits
system.l2cache.ReadSharedReq_hits::.cpu.data           98                       # number of ReadSharedReq hits
system.l2cache.ReadSharedReq_hits::.cpu.dcache.prefetcher           14                       # number of ReadSharedReq hits
system.l2cache.ReadSharedReq_hits::total          324                       # number of ReadSharedReq hits
system.l2cache.ReadSharedReq_misses::.cpu.inst          227                       # number of ReadSharedReq misses
system.l2cache.ReadSharedReq_misses::.cpu.data          110                       # number of ReadSharedReq misses
system.l2cache.ReadSharedReq_misses::.cpu.dcache.prefetcher           50                       # number of ReadSharedReq misses
system.l2cache.ReadSharedReq_misses::total          387                       # number of ReadSharedReq misses
system.l2cache.ReadSharedReq_miss_latency::.cpu.inst     15214000                       # number of ReadSharedReq miss cycles
system.l2cache.ReadSharedReq_miss_latency::.cpu.data      7435200                       # number of ReadSharedReq miss cycles
system.l2cache.ReadSharedReq_miss_latency::.cpu.dcache.prefetcher      3370749                       # number of ReadSharedReq miss cycles
system.l2cache.ReadSharedReq_miss_latency::total     26019949                       # number of ReadSharedReq miss cycles
system.l2cache.ReadSharedReq_accesses::.cpu.inst          439                       # number of ReadSharedReq accesses(hits+misses)
system.l2cache.ReadSharedReq_accesses::.cpu.data          208                       # number of ReadSharedReq accesses(hits+misses)
system.l2cache.ReadSharedReq_accesses::.cpu.dcache.prefetcher           64                       # number of ReadSharedReq accesses(hits+misses)
system.l2cache.ReadSharedReq_accesses::total          711                       # number of ReadSharedReq accesses(hits+misses)
system.l2cache.ReadSharedReq_miss_rate::.cpu.inst     0.517084                       # miss rate for ReadSharedReq accesses
system.l2cache.ReadSharedReq_miss_rate::.cpu.data     0.528846                       # miss rate for ReadSharedReq accesses
system.l2cache.ReadSharedReq_miss_rate::.cpu.dcache.prefetcher     0.781250                       # miss rate for ReadSharedReq accesses
system.l2cache.ReadSharedReq_miss_rate::total     0.544304                       # miss rate for ReadSharedReq accesses
system.l2cache.ReadSharedReq_avg_miss_latency::.cpu.inst 67022.026432                       # average ReadSharedReq miss latency
system.l2cache.ReadSharedReq_avg_miss_latency::.cpu.data 67592.727273                       # average ReadSharedReq miss latency
system.l2cache.ReadSharedReq_avg_miss_latency::.cpu.dcache.prefetcher 67414.980000                       # average ReadSharedReq miss latency
system.l2cache.ReadSharedReq_avg_miss_latency::total 67235.010336                       # average ReadSharedReq miss latency
system.l2cache.ReadSharedReq_mshr_misses::.cpu.inst          227                       # number of ReadSharedReq MSHR misses
system.l2cache.ReadSharedReq_mshr_misses::.cpu.data          110                       # number of ReadSharedReq MSHR misses
system.l2cache.ReadSharedReq_mshr_misses::.cpu.dcache.prefetcher           50                       # number of ReadSharedReq MSHR misses
system.l2cache.ReadSharedReq_mshr_misses::total          387                       # number of ReadSharedReq MSHR misses
system.l2cache.ReadSharedReq_mshr_miss_latency::.cpu.inst     13406000                       # number of ReadSharedReq MSHR miss cycles
system.l2cache.ReadSharedReq_mshr_miss_latency::.cpu.data      6555200                       # number of ReadSharedReq MSHR miss cycles
system.l2cache.ReadSharedReq_mshr_miss_latency::.cpu.dcache.prefetcher      2970749                       # number of ReadSharedReq MSHR miss cycles
system.l2cache.ReadSharedReq_mshr_miss_latency::total     22931949                       # number of ReadSharedReq MSHR miss cycles
system.l2cache.ReadSharedReq_mshr_miss_rate::.cpu.inst     0.517084                       # mshr miss rate for ReadSharedReq accesses
system.l2cache.ReadSharedReq_mshr_miss_rate::.cpu.data     0.528846                       # mshr miss rate for ReadSharedReq accesses
system.l2cache.ReadSharedReq_mshr_miss_rate::.cpu.dcache.prefetcher     0.781250                       # mshr miss rate for ReadSharedReq accesses
system.l2cache.ReadSharedReq_mshr_miss_rate::total     0.544304                       # mshr miss rate for ReadSharedReq accesses
system.l2cache.ReadSharedReq_avg_mshr_miss_latency::.cpu.inst 59057.268722                       # average ReadSharedReq mshr miss latency
system.l2cache.ReadSharedReq_avg_mshr_miss_latency::.cpu.data 59592.727273                       # average ReadSharedReq mshr miss latency
system.l2cache.ReadSharedReq_avg_mshr_miss_latency::.cpu.dcache.prefetcher 59414.980000                       # average ReadSharedReq mshr miss latency
system.l2cache.ReadSharedReq_avg_mshr_miss_latency::total 59255.682171                       # average ReadSharedReq mshr miss latency
system.l2cache.prefetcher.pwrStateResidencyTicks::UNDEFINED     26746400                       # Cumulative time (in ticks) in various power states
system.l2cache.tags.pwrStateResidencyTicks::UNDEFINED     26746400                       # Cumulative time (in ticks) in various power states
system.l2cache.tags.tagsinuse                    4096                       # Cycle average of tags in use
system.l2cache.tags.total_refs                  14109                       # Total number of references to valid blocks.
system.l2cache.tags.sampled_refs                 4500                       # Sample count of references to valid blocks.
system.l2cache.tags.avg_refs                 3.135333                       # Average number of references to valid blocks.
system.l2cache.tags.warmup_cycle                    0                       # Cycle when the warmup percentage was hit.
system.l2cache.tags.occ_blocks::.writebacks    42.622319                       # Average occupied blocks per requestor
system.l2cache.tags.occ_blocks::.cpu.inst  1145.851767                       # Average occupied blocks per requestor
system.l2cache.tags.occ_blocks::.cpu.data  1778.836432                       # Average occupied blocks per requestor
system.l2cache.tags.occ_blocks::.cpu.dcache.prefetcher  1003.503019                       # Average occupied blocks per requestor
system.l2cache.tags.occ_blocks::.l2cache.prefetcher   125.186462                       # Average occupied blocks per requestor
system.l2cache.tags.occ_percent::.writebacks     0.010406                       # Average percentage of cache occupancy
system.l2cache.tags.occ_percent::.cpu.inst     0.279749                       # Average percentage of cache occupancy
system.l2cache.tags.occ_percent::.cpu.data     0.434286                       # Average percentage of cache occupancy
system.l2cache.tags.occ_percent::.cpu.dcache.prefetcher     0.244996                       # Average percentage of cache occupancy
system.l2cache.tags.occ_percent::.l2cache.prefetcher     0.030563                       # Average percentage of cache occupancy
system.l2cache.tags.occ_percent::total              1                       # Average percentage of cache occupancy
system.l2cache.tags.occ_task_id_blocks::1022         1078                       # Occupied blocks per task id
system.l2cache.tags.occ_task_id_blocks::1024         3018                       # Occupied blocks per task id
system.l2cache.tags.age_task_id_blocks_1022::0           14                       # Occupied blocks per task id
system.l2cache.tags.age_task_id_blocks_1022::1          128                       # Occupied blocks per task id
system.l2cache.tags.age_task_id_blocks_1022::2          934                       # Occupied blocks per task id
system.l2cache.tags.age_task_id_blocks_1022::3            2                       # Occupied blocks per task id
system.l2cache.tags.age_task_id_blocks_1024::0          174                       # Occupied blocks per task id
system.l2cache.tags.age_task_id_blocks_1024::1          980                       # Occupied blocks per task id
system.l2cache.tags.age_task_id_blocks_1024::2         1822                       # Occupied blocks per task id
system.l2cache.tags.age_task_id_blocks_1024::3           42                       # Occupied blocks per task id
system.l2cache.tags.occ_task_id_percent::1022     0.263184                       # Percentage of cache occupancy per task id
system.l2cache.tags.occ_task_id_percent::1024     0.736816                       # Percentage of cache occupancy per task id
system.l2cache.tags.tag_accesses                11908                       # Number of tag accesses
system.l2cache.tags.data_accesses               11908                       # Number of data accesses
system.mem_ctrl.pwrStateResidencyTicks::UNDEFINED     26746400                       # Cumulative time (in ticks) in various power states
system.mem_ctrl.bytes_read::.cpu.inst           14464                       # Number of bytes read from this memory
system.mem_ctrl.bytes_read::.cpu.data            7424                       # Number of bytes read from this memory
system.mem_ctrl.bytes_read::.cpu.dcache.prefetcher         3200                       # Number of bytes read from this memory
system.mem_ctrl.bytes_read::.l2cache.prefetcher          128                       # Number of bytes read from this memory
system.mem_ctrl.bytes_read::total               25216                       # Number of bytes read from this memory
system.mem_ctrl.bytes_inst_read::.cpu.inst        14464                       # Number of instructions bytes read from this memory
system.mem_ctrl.bytes_inst_read::total          14464                       # Number of instructions bytes read from this memory
system.mem_ctrl.bytes_written::.writebacks         1280                       # Number of bytes written to this memory
system.mem_ctrl.bytes_written::total             1280                       # Number of bytes written to this memory
system.mem_ctrl.num_reads::.cpu.inst              226                       # Number of read requests responded to by this memory
system.mem_ctrl.num_reads::.cpu.data              116                       # Number of read requests responded to by this memory
system.mem_ctrl.num_reads::.cpu.dcache.prefetcher           50                       # Number of read requests responded to by this memory
system.mem_ctrl.num_reads::.l2cache.prefetcher            2                       # Number of read requests responded to by this memory
system.mem_ctrl.num_reads::total                  394                       # Number of read requests responded to by this memory
system.mem_ctrl.num_writes::.writebacks            20                       # Number of write requests responded to by this memory
system.mem_ctrl.num_writes::total                  20                       # Number of write requests responded to by this memory
system.mem_ctrl.bw_read::.cpu.inst          540783059                       # Total read bandwidth from this memory (bytes/s)
system.mem_ctrl.bw_read::.cpu.data          277570066                       # Total read bandwidth from this memory (bytes/s)
system.mem_ctrl.bw_read::.cpu.dcache.prefetcher    119642270                       # Total read bandwidth from this memory (bytes/s)
system.mem_ctrl.bw_read::.l2cache.prefetcher      4785691                       # Total read bandwidth from this memory (bytes/s)
system.mem_ctrl.bw_read::total              942781085                       # Total read bandwidth from this memory (bytes/s)
system.mem_ctrl.bw_inst_read::.cpu.inst     540783059                       # Instruction read bandwidth from this memory (bytes/s)
system.mem_ctrl.bw_inst_read::total         540783059                       # Instruction read bandwidth from this memory (bytes/s)
system.mem_ctrl.bw_write::.writebacks        47856908                       # Write bandwidth from this memory (bytes/s)
system.mem_ctrl.bw_write::total              47856908                       # Write bandwidth from this memory (bytes/s)
system.mem_ctrl.bw_total::.writebacks        47856908                       # Total bandwidth to/from this memory (bytes/s)
system.mem_ctrl.bw_total::.cpu.inst         540783059                       # Total bandwidth to/from this memory (bytes/s)
system.mem_ctrl.bw_total::.cpu.data         277570066                       # Total bandwidth to/from this memory (bytes/s)
system.mem_ctrl.bw_total::.cpu.dcache.prefetcher    119642270                       # Total bandwidth to/from this memory (bytes/s)
system.mem_ctrl.bw_total::.l2cache.prefetcher      4785691                       # Total bandwidth to/from this memory (bytes/s)
system.mem_ctrl.bw_total::total             990637992                       # Total bandwidth to/from this memory (bytes/s)

---------- End Simulation Statistics   ----------
