
---------- Begin Simulation Statistics ----------
final_tick                                 1096338800                       # Number of ticks from beginning of simulation (restored from checkpoints and never reset)
host_inst_rate                                 181806                       # Simulator instruction rate (inst/s)
host_mem_usage                                4406844                       # Number of bytes of host memory used
host_op_rate                                   316842                       # Simulator op (including micro ops) rate (op/s)
host_seconds                                    11.43                       # Real time elapsed on the host
host_tick_rate                               95904651                       # Simulator tick rate (ticks/s)
sim_freq                                 1000000000000                       # Frequency of simulated ticks
sim_insts                                     2078315                       # Number of instructions simulated
sim_ops                                       3621989                       # Number of ops (including micro ops) simulated
sim_seconds                                  0.001096                       # Number of seconds simulated
sim_ticks                                  1096338800                       # Number of ticks simulated
system.cpu.branchPred.BTBCorrect                    0                       # Number of correct BTB predictions (this stat may not work properly.
system.cpu.branchPred.BTBHitPct              0.000000                       # BTB Hit Percentage
system.cpu.branchPred.BTBHits                       0                       # Number of BTB hits
system.cpu.branchPred.BTBLookups               433510                       # Number of BTB lookups
system.cpu.branchPred.RASInCorrect                  7                       # Number of incorrect RAS predictions.
system.cpu.branchPred.condIncorrect             24236                       # Number of conditional branches incorrect
system.cpu.branchPred.condPredicted            465760                       # Number of conditional branches predicted
system.cpu.branchPred.indirectHits             238567                       # Number of indirect target hits.
system.cpu.branchPred.indirectLookups          433510                       # Number of indirect predictor lookups.
system.cpu.branchPred.indirectMisses           194943                       # Number of indirect misses.
system.cpu.branchPred.lookups                  492263                       # Number of BP lookups
system.cpu.branchPred.usedRAS                   11446                       # Number of times the RAS was used to get a target.
system.cpu.branchPredindirectMispredicted        12154                       # Number of mispredicted indirect branches.
system.cpu.cc_regfile_reads                   2385068                       # number of cc regfile reads
system.cpu.cc_regfile_writes                  1941952                       # number of cc regfile writes
system.cpu.commit.amos                              0                       # Number of atomic instructions committed
system.cpu.commit.branchMispredicts             24345                       # The number of times a branch was mispredicted
system.cpu.commit.branches                     347452                       # Number of branches committed
system.cpu.commit.bw_lim_events                602062                       # number cycles where commit BW limit reached
system.cpu.commit.commitNonSpecStalls             760                       # The number of times commit has been forced to stall to communicate backwards
system.cpu.commit.commitSquashedInsts          889945                       # The number of squashed insts skipped by commit
system.cpu.commit.committedInsts              2078315                       # Number of instructions committed
system.cpu.commit.committedOps                3621989                       # Number of ops (including micro ops) committed
system.cpu.commit.committed_per_cycle::samples      2336242                       # Number of insts commited each cycle
system.cpu.commit.committed_per_cycle::mean     1.550348                       # Number of insts commited each cycle
system.cpu.commit.committed_per_cycle::stdev     1.725535                       # Number of insts commited each cycle
system.cpu.commit.committed_per_cycle::underflows            0      0.00%      0.00% # Number of insts commited each cycle
system.cpu.commit.committed_per_cycle::0      1152726     49.34%     49.34% # Number of insts commited each cycle
system.cpu.commit.committed_per_cycle::1       179229      7.67%     57.01% # Number of insts commited each cycle
system.cpu.commit.committed_per_cycle::2       172163      7.37%     64.38% # Number of insts commited each cycle
system.cpu.commit.committed_per_cycle::3       230062      9.85%     74.23% # Number of insts commited each cycle
system.cpu.commit.committed_per_cycle::4       602062     25.77%    100.00% # Number of insts commited each cycle
system.cpu.commit.committed_per_cycle::overflows            0      0.00%    100.00% # Number of insts commited each cycle
system.cpu.commit.committed_per_cycle::min_value            0                       # Number of insts commited each cycle
system.cpu.commit.committed_per_cycle::max_value            4                       # Number of insts commited each cycle
system.cpu.commit.committed_per_cycle::total      2336242                       # Number of insts commited each cycle
system.cpu.commit.fp_insts                      77679                       # Number of committed floating point instructions.
system.cpu.commit.function_calls                 9634                       # Number of function calls committed.
system.cpu.commit.int_insts                   3563900                       # Number of committed integer instructions.
system.cpu.commit.loads                        495781                       # Number of loads committed
system.cpu.commit.membars                           1                       # Number of memory barriers committed
system.cpu.commit.op_class_0::No_OpClass        20777      0.57%      0.57% # Class of committed instruction
system.cpu.commit.op_class_0::IntAlu          2846743     78.60%     79.17% # Class of committed instruction
system.cpu.commit.op_class_0::IntMult            1426      0.04%     79.21% # Class of committed instruction
system.cpu.commit.op_class_0::IntDiv            37658      1.04%     80.25% # Class of committed instruction
system.cpu.commit.op_class_0::FloatAdd           3021      0.08%     80.33% # Class of committed instruction
system.cpu.commit.op_class_0::FloatCmp              0      0.00%     80.33% # Class of committed instruction
system.cpu.commit.op_class_0::FloatCvt           1248      0.03%     80.37% # Class of committed instruction
system.cpu.commit.op_class_0::FloatMult             0      0.00%     80.37% # Class of committed instruction
system.cpu.commit.op_class_0::FloatMultAcc            0      0.00%     80.37% # Class of committed instruction
system.cpu.commit.op_class_0::FloatDiv              0      0.00%     80.37% # Class of committed instruction
system.cpu.commit.op_class_0::FloatMisc             0      0.00%     80.37% # Class of committed instruction
system.cpu.commit.op_class_0::FloatSqrt             0      0.00%     80.37% # Class of committed instruction
system.cpu.commit.op_class_0::SimdAdd            6270      0.17%     80.54% # Class of committed instruction
system.cpu.commit.op_class_0::SimdAddAcc            0      0.00%     80.54% # Class of committed instruction
system.cpu.commit.op_class_0::SimdAlu           11876      0.33%     80.87% # Class of committed instruction
system.cpu.commit.op_class_0::SimdCmp               0      0.00%     80.87% # Class of committed instruction
system.cpu.commit.op_class_0::SimdCvt           12766      0.35%     81.22% # Class of committed instruction
system.cpu.commit.op_class_0::SimdMisc           7811      0.22%     81.44% # Class of committed instruction
system.cpu.commit.op_class_0::SimdMult              0      0.00%     81.44% # Class of committed instruction
system.cpu.commit.op_class_0::SimdMultAcc            0      0.00%     81.44% # Class of committed instruction
system.cpu.commit.op_class_0::SimdShift          1316      0.04%     81.47% # Class of committed instruction
system.cpu.commit.op_class_0::SimdShiftAcc            0      0.00%     81.47% # Class of committed instruction
system.cpu.commit.op_class_0::SimdDiv               0      0.00%     81.47% # Class of committed instruction
system.cpu.commit.op_class_0::SimdSqrt              0      0.00%     81.47% # Class of committed instruction
system.cpu.commit.op_class_0::SimdFloatAdd            0      0.00%     81.47% # Class of committed instruction
system.cpu.commit.op_class_0::SimdFloatAlu            0      0.00%     81.47% # Class of committed instruction
system.cpu.commit.op_class_0::SimdFloatCmp            0      0.00%     81.47% # Class of committed instruction
system.cpu.commit.op_class_0::SimdFloatCvt            0      0.00%     81.47% # Class of committed instruction
system.cpu.commit.op_class_0::SimdFloatDiv            0      0.00%     81.47% # Class of committed instruction
system.cpu.commit.op_class_0::SimdFloatMisc            0      0.00%     81.47% # Class of committed instruction
system.cpu.commit.op_class_0::SimdFloatMult            0      0.00%     81.47% # Class of committed instruction
system.cpu.commit.op_class_0::SimdFloatMultAcc            0      0.00%     81.47% # Class of committed instruction
system.cpu.commit.op_class_0::SimdFloatSqrt            0      0.00%     81.47% # Class of committed instruction
system.cpu.commit.op_class_0::SimdReduceAdd            0      0.00%     81.47% # Class of committed instruction
system.cpu.commit.op_class_0::SimdReduceAlu            0      0.00%     81.47% # Class of committed instruction
system.cpu.commit.op_class_0::SimdReduceCmp            0      0.00%     81.47% # Class of committed instruction
system.cpu.commit.op_class_0::SimdFloatReduceAdd            0      0.00%     81.47% # Class of committed instruction
system.cpu.commit.op_class_0::SimdFloatReduceCmp            0      0.00%     81.47% # Class of committed instruction
system.cpu.commit.op_class_0::SimdAes               0      0.00%     81.47% # Class of committed instruction
system.cpu.commit.op_class_0::SimdAesMix            0      0.00%     81.47% # Class of committed instruction
system.cpu.commit.op_class_0::SimdSha1Hash            0      0.00%     81.47% # Class of committed instruction
system.cpu.commit.op_class_0::SimdSha1Hash2            0      0.00%     81.47% # Class of committed instruction
system.cpu.commit.op_class_0::SimdSha256Hash            0      0.00%     81.47% # Class of committed instruction
system.cpu.commit.op_class_0::SimdSha256Hash2            0      0.00%     81.47% # Class of committed instruction
system.cpu.commit.op_class_0::SimdShaSigma2            0      0.00%     81.47% # Class of committed instruction
system.cpu.commit.op_class_0::SimdShaSigma3            0      0.00%     81.47% # Class of committed instruction
system.cpu.commit.op_class_0::SimdPredAlu            0      0.00%     81.47% # Class of committed instruction
system.cpu.commit.op_class_0::MemRead          476015     13.14%     94.61% # Class of committed instruction
system.cpu.commit.op_class_0::MemWrite         162949      4.50%     99.11% # Class of committed instruction
system.cpu.commit.op_class_0::FloatMemRead        19766      0.55%     99.66% # Class of committed instruction
system.cpu.commit.op_class_0::FloatMemWrite        12347      0.34%    100.00% # Class of committed instruction
system.cpu.commit.op_class_0::IprAccess             0      0.00%    100.00% # Class of committed instruction
system.cpu.commit.op_class_0::InstPrefetch            0      0.00%    100.00% # Class of committed instruction
system.cpu.commit.op_class_0::total           3621989                       # Class of committed instruction
system.cpu.commit.refs                         671077                       # Number of memory references committed
system.cpu.commit.swp_count                         0                       # Number of s/w prefetches committed
system.cpu.commit.vec_insts                         0                       # Number of committed Vector instructions.
system.cpu.committedInsts                     2078315                       # Number of Instructions Simulated
system.cpu.committedOps                       3621989                       # Number of Ops (including micro ops) Simulated
system.cpu.cpi                               1.318784                       # CPI: Cycles Per Instruction
system.cpu.cpi_total                         1.318784                       # CPI: Total CPI of All Threads
system.cpu.dcache.prefetcher.num_hwpf_issued         7988                       # number of hwpf issued
system.cpu.dcache.prefetcher.pfBufferHit        33728                       # number of redundant prefetches already in prefetch queue
system.cpu.dcache.prefetcher.pfIdentified        48704                       # number of prefetch candidates identified
system.cpu.dcache.prefetcher.pfInCache              0                       # number of redundant prefetches already in cache/mshr dropped
system.cpu.dcache.prefetcher.pfRemovedFull            0                       # number of prefetches dropped due to prefetch queue size
system.cpu.dcache.prefetcher.pfSpanPage          4516                       # number of prefetches that crossed the page
system.cpu.decode.BlockedCycles               1019868                       # Number of cycles decode is blocked
system.cpu.decode.DecodedInsts                4728296                       # Number of instructions handled by decode
system.cpu.decode.IdleCycles                   297348                       # Number of cycles decode is idle
system.cpu.decode.RunCycles                   1148342                       # Number of cycles decode is running
system.cpu.decode.SquashCycles                  24415                       # Number of cycles decode is squashing
system.cpu.decode.UnblockCycles                 89005                       # Number of cycles decode is unblocking
system.cpu.dtb.rdAccesses                      578989                       # TLB accesses on read requests
system.cpu.dtb.rdMisses                          2043                       # TLB misses on read requests
system.cpu.dtb.wrAccesses                      194612                       # TLB accesses on write requests
system.cpu.dtb.wrMisses                           154                       # TLB misses on write requests
system.cpu.fetch.Branches                      492263                       # Number of branches that fetch encountered
system.cpu.fetch.CacheLines                    242816                       # Number of cache lines fetched
system.cpu.fetch.Cycles                       2220258                       # Number of cycles fetch has run and was not squashing or blocked
system.cpu.fetch.IcacheSquashes                  4694                       # Number of outstanding Icache misses that were squashed
system.cpu.fetch.Insts                        2847924                       # Number of instructions fetch has processed
system.cpu.fetch.MiscStallCycles                  135                       # Number of cycles fetch has spent waiting on interrupts, or bad addresses, or out of MSHRs
system.cpu.fetch.PendingQuiesceStallCycles            6                       # Number of stall cycles due to pending quiesce instructions
system.cpu.fetch.PendingTrapStallCycles           727                       # Number of stall cycles due to pending traps
system.cpu.fetch.SquashCycles                   48830                       # Number of cycles fetch has spent squashing
system.cpu.fetch.branchRate                  0.179602                       # Number of branch fetches per cycle
system.cpu.fetch.icacheStallCycles             333437                       # Number of cycles fetch is stalled on an Icache miss
system.cpu.fetch.predictedBranches             250013                       # Number of branches that fetch has predicted taken
system.cpu.fetch.rate                        1.039067                       # Number of inst fetches per cycle
system.cpu.fetch.rateDist::samples            2578978                       # Number of instructions fetched each cycle (Total)
system.cpu.fetch.rateDist::mean              1.941112                       # Number of instructions fetched each cycle (Total)
system.cpu.fetch.rateDist::stdev             1.930946                       # Number of instructions fetched each cycle (Total)
system.cpu.fetch.rateDist::underflows               0      0.00%      0.00% # Number of instructions fetched each cycle (Total)
system.cpu.fetch.rateDist::0                  1222938     47.42%     47.42% # Number of instructions fetched each cycle (Total)
system.cpu.fetch.rateDist::1                    73862      2.86%     50.28% # Number of instructions fetched each cycle (Total)
system.cpu.fetch.rateDist::2                    59968      2.33%     52.61% # Number of instructions fetched each cycle (Total)
system.cpu.fetch.rateDist::3                    76553      2.97%     55.58% # Number of instructions fetched each cycle (Total)
system.cpu.fetch.rateDist::4                  1145657     44.42%    100.00% # Number of instructions fetched each cycle (Total)
system.cpu.fetch.rateDist::overflows                0      0.00%    100.00% # Number of instructions fetched each cycle (Total)
system.cpu.fetch.rateDist::min_value                0                       # Number of instructions fetched each cycle (Total)
system.cpu.fetch.rateDist::max_value                4                       # Number of instructions fetched each cycle (Total)
system.cpu.fetch.rateDist::total              2578978                       # Number of instructions fetched each cycle (Total)
system.cpu.fp_regfile_reads                    129136                       # number of floating regfile reads
system.cpu.fp_regfile_writes                    71024                       # number of floating regfile writes
system.cpu.fuPool.fu_ticks_busy::IntALU(0)    218490400                       # Total ticks fu was busy
system.cpu.fuPool.fu_ticks_busy::IntALU(1)    218490000                       # Total ticks fu was busy
system.cpu.fuPool.fu_ticks_busy::IntALU(2)    218490000                       # Total ticks fu was busy
system.cpu.fuPool.fu_ticks_busy::IntALU(3)    218490000                       # Total ticks fu was busy
system.cpu.fuPool.fu_ticks_busy::IntALU(4)    218490000                       # Total ticks fu was busy
system.cpu.fuPool.fu_ticks_busy::IntALU(5)    218490000                       # Total ticks fu was busy
system.cpu.fuPool.fu_ticks_busy::IntMultDiv(0)      8584000                       # Total ticks fu was busy
system.cpu.fuPool.fu_ticks_busy::IntMultDiv(1)      8583600                       # Total ticks fu was busy
system.cpu.fuPool.fu_ticks_busy::FP_ALU(0)       597200                       # Total ticks fu was busy
system.cpu.fuPool.fu_ticks_busy::FP_ALU(1)       597200                       # Total ticks fu was busy
system.cpu.fuPool.fu_ticks_busy::FP_ALU(2)       597200                       # Total ticks fu was busy
system.cpu.fuPool.fu_ticks_busy::FP_ALU(3)       596800                       # Total ticks fu was busy
system.cpu.fuPool.fu_ticks_busy::FP_MultDiv(0)            0                       # Total ticks fu was busy
system.cpu.fuPool.fu_ticks_busy::FP_MultDiv(1)            0                       # Total ticks fu was busy
system.cpu.fuPool.fu_ticks_busy::SIMD_Unit(0)      4902000                       # Total ticks fu was busy
system.cpu.fuPool.fu_ticks_busy::SIMD_Unit(1)      4924000                       # Total ticks fu was busy
system.cpu.fuPool.fu_ticks_busy::SIMD_Unit(2)      4810000                       # Total ticks fu was busy
system.cpu.fuPool.fu_ticks_busy::SIMD_Unit(3)      4844400                       # Total ticks fu was busy
system.cpu.fuPool.fu_ticks_busy::PredALU(0)            0                       # Total ticks fu was busy
system.cpu.fuPool.fu_ticks_busy::RdWrPort(0)     78835200                       # Total ticks fu was busy
system.cpu.fuPool.fu_ticks_busy::RdWrPort(1)     78801600                       # Total ticks fu was busy
system.cpu.fuPool.fu_ticks_busy::RdWrPort(2)     78837200                       # Total ticks fu was busy
system.cpu.fuPool.fu_ticks_busy::RdWrPort(3)     78866400                       # Total ticks fu was busy
system.cpu.fuPool.fu_ticks_busy::IprPort(0)            0                       # Total ticks fu was busy
system.cpu.fuPool.fu_ticks_busy::total     1665317200                       # Total ticks fu was busy
system.cpu.icache.prefetcher.num_hwpf_issued            0                       # number of hwpf issued
system.cpu.icache.prefetcher.pfBufferHit            0                       # number of redundant prefetches already in prefetch queue
system.cpu.icache.prefetcher.pfIdentified            0                       # number of prefetch candidates identified
system.cpu.icache.prefetcher.pfInCache              0                       # number of redundant prefetches already in cache/mshr dropped
system.cpu.icache.prefetcher.pfRemovedFull            0                       # number of prefetches dropped due to prefetch queue size
system.cpu.icache.prefetcher.pfSpanPage             0                       # number of prefetches that crossed the page
system.cpu.idleCycles                          161870                       # Total number of cycles that the CPU has spent unscheduled due to idling
system.cpu.iew.branchMispredicts                28763                       # Number of branch mispredicts detected at execute
system.cpu.iew.exec_branches                   377648                       # Number of branches executed
system.cpu.iew.exec_nop                             0                       # number of nop insts executed
system.cpu.iew.exec_rate                     1.516318                       # Inst execution rate
system.cpu.iew.exec_refs                       775356                       # number of memory reference insts executed
system.cpu.iew.exec_stores                     194598                       # Number of stores executed
system.cpu.iew.exec_swp                             0                       # number of swp insts executed
system.cpu.iew.iewBlockCycles                  691455                       # Number of cycles IEW is blocking
system.cpu.iew.iewDispLoadInsts                611455                       # Number of dispatched load instructions
system.cpu.iew.iewDispNonSpecInsts                943                       # Number of dispatched non-speculative instructions
system.cpu.iew.iewDispSquashedInsts               549                       # Number of squashed instructions skipped by dispatch
system.cpu.iew.iewDispStoreInsts               204890                       # Number of dispatched store instructions
system.cpu.iew.iewDispatchedInsts             4511891                       # Number of instructions dispatched to IQ
system.cpu.iew.iewExecLoadInsts                580758                       # Number of load instructions executed
system.cpu.iew.iewExecSquashedInsts             34541                       # Number of squashed instructions skipped in execute
system.cpu.iew.iewExecutedInsts               4155998                       # Number of executed instructions
system.cpu.iew.iewIQFullEvents                   3355                       # Number of times the IQ has become full, causing a stall
system.cpu.iew.iewIdleCycles                        0                       # Number of cycles IEW is idle
system.cpu.iew.iewLSQFullEvents                  8092                       # Number of times the LSQ has become full, causing a stall
system.cpu.iew.iewSquashCycles                  24415                       # Number of cycles IEW is squashing
system.cpu.iew.iewUnblockCycles                 14425                       # Number of cycles IEW is unblocking
system.cpu.iew.lsq.thread0.blockedLoads             0                       # Number of blocked loads due to partial load-store forwarding
system.cpu.iew.lsq.thread0.cacheBlocked           625                       # Number of times an access to memory failed due to the cache being blocked
system.cpu.iew.lsq.thread0.forwLoads            39993                       # Number of loads that had data forwarded from stores
system.cpu.iew.lsq.thread0.ignoredResponses          224                       # Number of memory responses ignored because the instruction is squashed
system.cpu.iew.lsq.thread0.invAddrLoads             0                       # Number of loads ignored due to an invalid address
system.cpu.iew.lsq.thread0.invAddrSwpfs             0                       # Number of software prefetches ignored due to an invalid address
system.cpu.iew.lsq.thread0.memOrderViolation           85                       # Number of memory ordering violations
system.cpu.iew.lsq.thread0.rescheduledLoads            1                       # Number of loads that were rescheduled
system.cpu.iew.lsq.thread0.squashedLoads       115672                       # Number of loads squashed
system.cpu.iew.lsq.thread0.squashedStores        29593                       # Number of stores squashed
system.cpu.iew.memOrderViolationEvents             85                       # Number of memory order violations
system.cpu.iew.predictedNotTakenIncorrect        20678                       # Number of branches that were predicted not taken incorrectly
system.cpu.iew.predictedTakenIncorrect           8085                       # Number of branches that were predicted taken incorrectly
system.cpu.iew.wb_consumers                   5819129                       # num instructions consuming a value
system.cpu.iew.wb_count                       4134001                       # cumulative count of insts written-back
system.cpu.iew.wb_fanout                     0.567169                       # average fanout of values written-back
system.cpu.iew.wb_producers                   3300429                       # num instructions producing a value
system.cpu.iew.wb_rate                       1.508293                       # insts written-back per cycle
system.cpu.iew.wb_sent                        4140943                       # cumulative count of insts sent to commit
system.cpu.int_regfile_reads                  6432216                       # number of integer regfile reads
system.cpu.int_regfile_writes                 3566345                       # number of integer regfile writes
system.cpu.ipc                               0.758274                       # IPC: Instructions Per Cycle
system.cpu.ipc_total                         0.758274                       # IPC: Total IPC of All Threads
system.cpu.iq.FU_type_0::No_OpClass             27246      0.65%      0.65% # Type of FU issued
system.cpu.iq.FU_type_0::IntAlu               3277353     78.21%     78.86% # Type of FU issued
system.cpu.iq.FU_type_0::IntMult                 1465      0.03%     78.89% # Type of FU issued
system.cpu.iq.FU_type_0::IntDiv                 41454      0.99%     79.88% # Type of FU issued
system.cpu.iq.FU_type_0::FloatAdd                4687      0.11%     79.99% # Type of FU issued
system.cpu.iq.FU_type_0::FloatCmp                   0      0.00%     79.99% # Type of FU issued
system.cpu.iq.FU_type_0::FloatCvt                1284      0.03%     80.03% # Type of FU issued
system.cpu.iq.FU_type_0::FloatMult                  0      0.00%     80.03% # Type of FU issued
system.cpu.iq.FU_type_0::FloatMultAcc               0      0.00%     80.03% # Type of FU issued
system.cpu.iq.FU_type_0::FloatDiv                   0      0.00%     80.03% # Type of FU issued
system.cpu.iq.FU_type_0::FloatMisc                  0      0.00%     80.03% # Type of FU issued
system.cpu.iq.FU_type_0::FloatSqrt                  0      0.00%     80.03% # Type of FU issued
system.cpu.iq.FU_type_0::SimdAdd                 7017      0.17%     80.19% # Type of FU issued
system.cpu.iq.FU_type_0::SimdAddAcc                 0      0.00%     80.19% # Type of FU issued
system.cpu.iq.FU_type_0::SimdAlu                15971      0.38%     80.57% # Type of FU issued
system.cpu.iq.FU_type_0::SimdCmp                    0      0.00%     80.57% # Type of FU issued
system.cpu.iq.FU_type_0::SimdCvt                14749      0.35%     80.93% # Type of FU issued
system.cpu.iq.FU_type_0::SimdMisc                8503      0.20%     81.13% # Type of FU issued
system.cpu.iq.FU_type_0::SimdMult                   0      0.00%     81.13% # Type of FU issued
system.cpu.iq.FU_type_0::SimdMultAcc                0      0.00%     81.13% # Type of FU issued
system.cpu.iq.FU_type_0::SimdShift               2461      0.06%     81.19% # Type of FU issued
system.cpu.iq.FU_type_0::SimdShiftAcc               0      0.00%     81.19% # Type of FU issued
system.cpu.iq.FU_type_0::SimdDiv                    0      0.00%     81.19% # Type of FU issued
system.cpu.iq.FU_type_0::SimdSqrt                   0      0.00%     81.19% # Type of FU issued
system.cpu.iq.FU_type_0::SimdFloatAdd               0      0.00%     81.19% # Type of FU issued
system.cpu.iq.FU_type_0::SimdFloatAlu               0      0.00%     81.19% # Type of FU issued
system.cpu.iq.FU_type_0::SimdFloatCmp               0      0.00%     81.19% # Type of FU issued
system.cpu.iq.FU_type_0::SimdFloatCvt               0      0.00%     81.19% # Type of FU issued
system.cpu.iq.FU_type_0::SimdFloatDiv               0      0.00%     81.19% # Type of FU issued
system.cpu.iq.FU_type_0::SimdFloatMisc              0      0.00%     81.19% # Type of FU issued
system.cpu.iq.FU_type_0::SimdFloatMult              0      0.00%     81.19% # Type of FU issued
system.cpu.iq.FU_type_0::SimdFloatMultAcc            0      0.00%     81.19% # Type of FU issued
system.cpu.iq.FU_type_0::SimdFloatSqrt              0      0.00%     81.19% # Type of FU issued
system.cpu.iq.FU_type_0::SimdReduceAdd              0      0.00%     81.19% # Type of FU issued
system.cpu.iq.FU_type_0::SimdReduceAlu              0      0.00%     81.19% # Type of FU issued
system.cpu.iq.FU_type_0::SimdReduceCmp              0      0.00%     81.19% # Type of FU issued
system.cpu.iq.FU_type_0::SimdFloatReduceAdd            0      0.00%     81.19% # Type of FU issued
system.cpu.iq.FU_type_0::SimdFloatReduceCmp            0      0.00%     81.19% # Type of FU issued
system.cpu.iq.FU_type_0::SimdAes                    0      0.00%     81.19% # Type of FU issued
system.cpu.iq.FU_type_0::SimdAesMix                 0      0.00%     81.19% # Type of FU issued
system.cpu.iq.FU_type_0::SimdSha1Hash               0      0.00%     81.19% # Type of FU issued
system.cpu.iq.FU_type_0::SimdSha1Hash2              0      0.00%     81.19% # Type of FU issued
system.cpu.iq.FU_type_0::SimdSha256Hash             0      0.00%     81.19% # Type of FU issued
system.cpu.iq.FU_type_0::SimdSha256Hash2            0      0.00%     81.19% # Type of FU issued
system.cpu.iq.FU_type_0::SimdShaSigma2              0      0.00%     81.19% # Type of FU issued
system.cpu.iq.FU_type_0::SimdShaSigma3              0      0.00%     81.19% # Type of FU issued
system.cpu.iq.FU_type_0::SimdPredAlu                0      0.00%     81.19% # Type of FU issued
system.cpu.iq.FU_type_0::MemRead               564925     13.48%     94.67% # Type of FU issued
system.cpu.iq.FU_type_0::MemWrite              183442      4.38%     99.05% # Type of FU issued
system.cpu.iq.FU_type_0::FloatMemRead           26255      0.63%     99.67% # Type of FU issued
system.cpu.iq.FU_type_0::FloatMemWrite          13731      0.33%    100.00% # Type of FU issued
system.cpu.iq.FU_type_0::IprAccess                  0      0.00%    100.00% # Type of FU issued
system.cpu.iq.FU_type_0::InstPrefetch               0      0.00%    100.00% # Type of FU issued
system.cpu.iq.FU_type_0::total                4190543                       # Type of FU issued
system.cpu.iq.fp_alu_accesses                   96115                       # Number of floating point alu accesses
system.cpu.iq.fp_inst_queue_reads              193662                       # Number of floating instruction queue reads
system.cpu.iq.fp_inst_queue_wakeup_accesses        92460                       # Number of floating instruction queue wakeup accesses
system.cpu.iq.fp_inst_queue_writes             141523                       # Number of floating instruction queue writes
system.cpu.iq.fu_busy_cnt                           0                       # FU busy when requested
system.cpu.iq.fu_busy_rate                          0                       # FU busy rate (busy events/executed inst)
system.cpu.iq.fu_full::No_OpClass                   0                       # attempts to use FU when none available
system.cpu.iq.fu_full::IntAlu                       0                       # attempts to use FU when none available
system.cpu.iq.fu_full::IntMult                      0                       # attempts to use FU when none available
system.cpu.iq.fu_full::IntDiv                       0                       # attempts to use FU when none available
system.cpu.iq.fu_full::FloatAdd                     0                       # attempts to use FU when none available
system.cpu.iq.fu_full::FloatCmp                     0                       # attempts to use FU when none available
system.cpu.iq.fu_full::FloatCvt                     0                       # attempts to use FU when none available
system.cpu.iq.fu_full::FloatMult                    0                       # attempts to use FU when none available
system.cpu.iq.fu_full::FloatMultAcc                 0                       # attempts to use FU when none available
system.cpu.iq.fu_full::FloatDiv                     0                       # attempts to use FU when none available
system.cpu.iq.fu_full::FloatMisc                    0                       # attempts to use FU when none available
system.cpu.iq.fu_full::FloatSqrt                    0                       # attempts to use FU when none available
system.cpu.iq.fu_full::SimdAdd                      0                       # attempts to use FU when none available
system.cpu.iq.fu_full::SimdAddAcc                   0                       # attempts to use FU when none available
system.cpu.iq.fu_full::SimdAlu                      0                       # attempts to use FU when none available
system.cpu.iq.fu_full::SimdCmp                      0                       # attempts to use FU when none available
system.cpu.iq.fu_full::SimdCvt                      0                       # attempts to use FU when none available
system.cpu.iq.fu_full::SimdMisc                     0                       # attempts to use FU when none available
system.cpu.iq.fu_full::SimdMult                     0                       # attempts to use FU when none available
system.cpu.iq.fu_full::SimdMultAcc                  0                       # attempts to use FU when none available
system.cpu.iq.fu_full::SimdShift                    0                       # attempts to use FU when none available
system.cpu.iq.fu_full::SimdShiftAcc                 0                       # attempts to use FU when none available
system.cpu.iq.fu_full::SimdDiv                      0                       # attempts to use FU when none available
system.cpu.iq.fu_full::SimdSqrt                     0                       # attempts to use FU when none available
system.cpu.iq.fu_full::SimdFloatAdd                 0                       # attempts to use FU when none available
system.cpu.iq.fu_full::SimdFloatAlu                 0                       # attempts to use FU when none available
system.cpu.iq.fu_full::SimdFloatCmp                 0                       # attempts to use FU when none available
system.cpu.iq.fu_full::SimdFloatCvt                 0                       # attempts to use FU when none available
system.cpu.iq.fu_full::SimdFloatDiv                 0                       # attempts to use FU when none available
system.cpu.iq.fu_full::SimdFloatMisc                0                       # attempts to use FU when none available
system.cpu.iq.fu_full::SimdFloatMult                0                       # attempts to use FU when none available
system.cpu.iq.fu_full::SimdFloatMultAcc             0                       # attempts to use FU when none available
system.cpu.iq.fu_full::SimdFloatSqrt                0                       # attempts to use FU when none available
system.cpu.iq.fu_full::SimdReduceAdd                0                       # attempts to use FU when none available
system.cpu.iq.fu_full::SimdReduceAlu                0                       # attempts to use FU when none available
system.cpu.iq.fu_full::SimdReduceCmp                0                       # attempts to use FU when none available
system.cpu.iq.fu_full::SimdFloatReduceAdd            0                       # attempts to use FU when none available
system.cpu.iq.fu_full::SimdFloatReduceCmp            0                       # attempts to use FU when none available
system.cpu.iq.fu_full::SimdAes                      0                       # attempts to use FU when none available
system.cpu.iq.fu_full::SimdAesMix                   0                       # attempts to use FU when none available
system.cpu.iq.fu_full::SimdSha1Hash                 0                       # attempts to use FU when none available
system.cpu.iq.fu_full::SimdSha1Hash2                0                       # attempts to use FU when none available
system.cpu.iq.fu_full::SimdSha256Hash               0                       # attempts to use FU when none available
system.cpu.iq.fu_full::SimdSha256Hash2              0                       # attempts to use FU when none available
system.cpu.iq.fu_full::SimdShaSigma2                0                       # attempts to use FU when none available
system.cpu.iq.fu_full::SimdShaSigma3                0                       # attempts to use FU when none available
system.cpu.iq.fu_full::SimdPredAlu                  0                       # attempts to use FU when none available
system.cpu.iq.fu_full::MemRead                      0                       # attempts to use FU when none available
system.cpu.iq.fu_full::MemWrite                     0                       # attempts to use FU when none available
system.cpu.iq.fu_full::FloatMemRead                 0                       # attempts to use FU when none available
system.cpu.iq.fu_full::FloatMemWrite                0                       # attempts to use FU when none available
system.cpu.iq.fu_full::IprAccess                    0                       # attempts to use FU when none available
system.cpu.iq.fu_full::InstPrefetch                 0                       # attempts to use FU when none available
system.cpu.iq.int_alu_accesses                4067182                       # Number of integer alu accesses
system.cpu.iq.int_inst_queue_reads           10784936                       # Number of integer instruction queue reads
system.cpu.iq.int_inst_queue_wakeup_accesses      4041541                       # Number of integer instruction queue wakeup accesses
system.cpu.iq.int_inst_queue_writes           5260343                       # Number of integer instruction queue writes
system.cpu.iq.iqInstsAdded                    4510781                       # Number of instructions added to the IQ (excludes non-spec)
system.cpu.iq.iqInstsIssued                   4190543                       # Number of instructions issued
system.cpu.iq.iqNonSpecInstsAdded                1110                       # Number of non-speculative instructions added to the IQ
system.cpu.iq.iqSquashedInstsExamined          889891                       # Number of squashed instructions iterated over during squash; mainly for profiling
system.cpu.iq.iqSquashedInstsIssued             18538                       # Number of squashed instructions issued
system.cpu.iq.iqSquashedNonSpecRemoved            350                       # Number of squashed non-spec instructions that were removed
system.cpu.iq.iqSquashedOperandsExamined      1327051                       # Number of squashed operands that are examined and possibly removed from graph
system.cpu.iq.issued_per_cycle::samples       2578978                       # Number of insts issued each cycle
system.cpu.iq.issued_per_cycle::mean         1.624885                       # Number of insts issued each cycle
system.cpu.iq.issued_per_cycle::stdev        1.670850                       # Number of insts issued each cycle
system.cpu.iq.issued_per_cycle::underflows            0      0.00%      0.00% # Number of insts issued each cycle
system.cpu.iq.issued_per_cycle::0             1164462     45.15%     45.15% # Number of insts issued each cycle
system.cpu.iq.issued_per_cycle::1              174288      6.76%     51.91% # Number of insts issued each cycle
system.cpu.iq.issued_per_cycle::2              301822     11.70%     63.61% # Number of insts issued each cycle
system.cpu.iq.issued_per_cycle::3              341013     13.22%     76.84% # Number of insts issued each cycle
system.cpu.iq.issued_per_cycle::4              597393     23.16%    100.00% # Number of insts issued each cycle
system.cpu.iq.issued_per_cycle::overflows            0      0.00%    100.00% # Number of insts issued each cycle
system.cpu.iq.issued_per_cycle::min_value            0                       # Number of insts issued each cycle
system.cpu.iq.issued_per_cycle::max_value            4                       # Number of insts issued each cycle
system.cpu.iq.issued_per_cycle::total         2578978                       # Number of insts issued each cycle
system.cpu.iq.rate                           1.528922                       # Inst issue rate
system.cpu.iq.vec_alu_accesses                      0                       # Number of vector alu accesses
system.cpu.iq.vec_inst_queue_reads                  0                       # Number of vector instruction queue reads
system.cpu.iq.vec_inst_queue_wakeup_accesses            0                       # Number of vector instruction queue wakeup accesses
system.cpu.iq.vec_inst_queue_writes                 0                       # Number of vector instruction queue writes
system.cpu.itb.rdAccesses                           0                       # TLB accesses on read requests
system.cpu.itb.rdMisses                             0                       # TLB misses on read requests
system.cpu.itb.wrAccesses                      242944                       # TLB accesses on write requests
system.cpu.itb.wrMisses                           381                       # TLB misses on write requests
system.cpu.memDep0.conflictingLoads             11575                       # Number of conflicting loads.
system.cpu.memDep0.conflictingStores             4605                       # Number of conflicting stores.
system.cpu.memDep0.insertedLoads               611455                       # Number of loads inserted to the mem dependence unit.
system.cpu.memDep0.insertedStores              204890                       # Number of stores inserted to the mem dependence unit.
system.cpu.misc_regfile_reads                 1566184                       # number of misc regfile reads
system.cpu.misc_regfile_writes                    702                       # number of misc regfile writes
system.cpu.numCycles                          2740848                       # number of cpu cycles simulated
system.cpu.numWorkItemsCompleted                    0                       # number of work items this cpu completed
system.cpu.numWorkItemsStarted                      0                       # number of work items this cpu started
system.cpu.process.numSyscalls                     57                       # Number of system calls
system.cpu.rename.BlockCycles                  834687                       # Number of cycles rename is blocking
system.cpu.rename.CommittedMaps               4952283                       # Number of HB maps that are committed
system.cpu.rename.FullRegisterEvents              168                       # Number of times there has been no free registers
system.cpu.rename.IQFullEvents                  47115                       # Number of times rename has blocked due to IQ full
system.cpu.rename.IdleCycles                   347756                       # Number of cycles rename is idle
system.cpu.rename.LQFullEvents                  16639                       # Number of times rename has blocked due to LQ full
system.cpu.rename.ROBFullEvents                  4201                       # Number of times rename has blocked due to ROB full
system.cpu.rename.RenameLookups              12155209                       # Number of register rename lookups that rename has made
system.cpu.rename.RenamedInsts                4653512                       # Number of instructions processed by rename
system.cpu.rename.RenamedOperands             6350896                       # Number of destination operands rename has renamed
system.cpu.rename.RunCycles                   1178517                       # Number of cycles rename is running
system.cpu.rename.SQFullEvents                  72472                       # Number of times rename has blocked due to SQ full
system.cpu.rename.SquashCycles                  24415                       # Number of cycles rename is squashing
system.cpu.rename.UnblockCycles                173616                       # Number of cycles rename is unblocking
system.cpu.rename.UndoneMaps                  1398587                       # Number of HB maps that are undone due to squashing
system.cpu.rename.fp_rename_lookups            167571                       # Number of floating rename lookups
system.cpu.rename.int_rename_lookups          7377762                       # Number of integer rename lookups
system.cpu.rename.serializeStallCycles          19987                       # count of cycles rename stalled for serializing inst
system.cpu.rename.serializingInsts                895                       # count of serializing insts renamed
system.cpu.rename.skidInsts                    207723                       # count of insts added to the skid buffer
system.cpu.rename.tempSerializingInsts            949                       # count of temporary serializing insts renamed
system.cpu.rob.rob_reads                      6246114                       # The number of ROB reads
system.cpu.rob.rob_writes                     9267503                       # The number of ROB writes
system.cpu.timesIdled                            1656                       # Number of times that the entire CPU went into an idle state and unscheduled itself
system.l2bus.snoop_filter.hit_multi_requests           15                       # Number of requests hitting in the snoop filter with multiple (>1) holders of the requested data.
system.l2bus.snoop_filter.hit_multi_snoops            1                       # Number of snoops hitting in the snoop filter with multiple (>1) holders of the requested data.
system.l2bus.snoop_filter.hit_single_requests        18522                       # Number of requests hitting in the snoop filter with a single holder of the requested data.
system.l2bus.snoop_filter.hit_single_snoops          435                       # Number of snoops hitting in the snoop filter with a single holder of the requested data.
system.l2bus.snoop_filter.tot_requests          38324                       # Total number of requests made to the snoop filter.
system.l2bus.snoop_filter.tot_snoops              436                       # Total number of snoops made to the snoop filter.
system.l2cache.prefetcher.num_hwpf_issued          707                       # number of hwpf issued
system.l2cache.prefetcher.pfBufferHit               0                       # number of redundant prefetches already in prefetch queue
system.l2cache.prefetcher.pfIdentified            707                       # number of prefetch candidates identified
system.l2cache.prefetcher.pfInCache                 0                       # number of redundant prefetches already in cache/mshr dropped
system.l2cache.prefetcher.pfRemovedFull             0                       # number of prefetches dropped due to prefetch queue size
system.l2cache.prefetcher.pfSpanPage              129                       # number of prefetches that crossed the page
system.membus.snoop_filter.hit_multi_requests            0                       # Number of requests hitting in the snoop filter with multiple (>1) holders of the requested data.
system.membus.snoop_filter.hit_multi_snoops            0                       # Number of snoops hitting in the snoop filter with multiple (>1) holders of the requested data.
system.membus.snoop_filter.hit_single_requests         9423                       # Number of requests hitting in the snoop filter with a single holder of the requested data.
system.membus.snoop_filter.hit_single_snoops            0                       # Number of snoops hitting in the snoop filter with a single holder of the requested data.
system.membus.snoop_filter.tot_requests         22967                       # Total number of requests made to the snoop filter.
system.membus.snoop_filter.tot_snoops               0                       # Total number of snoops made to the snoop filter.
system.membus.pwrStateResidencyTicks::UNDEFINED   1096338800                       # Cumulative time (in ticks) in various power states
system.membus.trans_dist::ReadResp              12202                       # Transaction distribution
system.membus.trans_dist::WritebackDirty         1348                       # Transaction distribution
system.membus.trans_dist::CleanEvict             8075                       # Transaction distribution
system.membus.trans_dist::ReadExReq              1342                       # Transaction distribution
system.membus.trans_dist::ReadExResp             1342                       # Transaction distribution
system.membus.trans_dist::ReadSharedReq         12202                       # Transaction distribution
system.membus.pkt_count_system.l2cache.mem_side::system.mem_ctrl.port        36511                       # Packet count per connected master and slave (bytes)
system.membus.pkt_count_system.l2cache.mem_side::total        36511                       # Packet count per connected master and slave (bytes)
system.membus.pkt_count::total                  36511                       # Packet count per connected master and slave (bytes)
system.membus.pkt_size_system.l2cache.mem_side::system.mem_ctrl.port       953088                       # Cumulative packet size per connected master and slave (bytes)
system.membus.pkt_size_system.l2cache.mem_side::total       953088                       # Cumulative packet size per connected master and slave (bytes)
system.membus.pkt_size::total                  953088                       # Cumulative packet size per connected master and slave (bytes)
system.membus.snoops                                0                       # Total snoops (count)
system.membus.snoopTraffic                          0                       # Total snoop traffic (bytes)
system.membus.snoop_fanout::samples             13544                       # Request fanout histogram
system.membus.snoop_fanout::mean                    0                       # Request fanout histogram
system.membus.snoop_fanout::stdev                   0                       # Request fanout histogram
system.membus.snoop_fanout::underflows              0      0.00%      0.00% # Request fanout histogram
system.membus.snoop_fanout::0                   13544    100.00%    100.00% # Request fanout histogram
system.membus.snoop_fanout::1                       0      0.00%    100.00% # Request fanout histogram
system.membus.snoop_fanout::overflows               0      0.00%    100.00% # Request fanout histogram
system.membus.snoop_fanout::min_value               0                       # Request fanout histogram
system.membus.snoop_fanout::max_value               0                       # Request fanout histogram
system.membus.snoop_fanout::total               13544                       # Request fanout histogram
system.membus.reqLayer2.occupancy            11371370                       # Layer occupancy (ticks)
system.membus.reqLayer2.utilization               1.0                       # Layer utilization (%)
system.membus.respLayer0.occupancy           29400930                       # Layer occupancy (ticks)
system.membus.respLayer0.utilization              2.7                       # Layer utilization (%)
system.l2bus.pwrStateResidencyTicks::UNDEFINED   1096338800                       # Cumulative time (in ticks) in various power states
system.l2bus.trans_dist::ReadResp               17701                       # Transaction distribution
system.l2bus.trans_dist::WritebackDirty          4129                       # Transaction distribution
system.l2bus.trans_dist::CleanEvict             23904                       # Transaction distribution
system.l2bus.trans_dist::HardPFReq                990                       # Transaction distribution
system.l2bus.trans_dist::ReadExReq               2101                       # Transaction distribution
system.l2bus.trans_dist::ReadExResp              2101                       # Transaction distribution
system.l2bus.trans_dist::ReadSharedReq          17701                       # Transaction distribution
system.l2bus.pkt_count_system.cpu.icache.mem_side::system.l2cache.cpu_side         8504                       # Packet count per connected master and slave (bytes)
system.l2bus.pkt_count_system.cpu.dcache.mem_side::system.l2cache.cpu_side        49619                       # Packet count per connected master and slave (bytes)
system.l2bus.pkt_count::total                   58123                       # Packet count per connected master and slave (bytes)
system.l2bus.pkt_size_system.cpu.icache.mem_side::system.l2cache.cpu_side       186752                       # Cumulative packet size per connected master and slave (bytes)
system.l2bus.pkt_size_system.cpu.dcache.mem_side::system.l2cache.cpu_side      1258368                       # Cumulative packet size per connected master and slave (bytes)
system.l2bus.pkt_size::total                  1445120                       # Cumulative packet size per connected master and slave (bytes)
system.l2bus.snoops                             10504                       # Total snoops (count)
system.l2bus.snoopTraffic                       86464                       # Total snoop traffic (bytes)
system.l2bus.snoop_fanout::samples              30303                       # Request fanout histogram
system.l2bus.snoop_fanout::mean              0.014916                       # Request fanout histogram
system.l2bus.snoop_fanout::stdev             0.121491                       # Request fanout histogram
system.l2bus.snoop_fanout::underflows               0      0.00%      0.00% # Request fanout histogram
system.l2bus.snoop_fanout::0                    29852     98.51%     98.51% # Request fanout histogram
system.l2bus.snoop_fanout::1                      450      1.49%    100.00% # Request fanout histogram
system.l2bus.snoop_fanout::2                        1      0.00%    100.00% # Request fanout histogram
system.l2bus.snoop_fanout::overflows                0      0.00%    100.00% # Request fanout histogram
system.l2bus.snoop_fanout::min_value                0                       # Request fanout histogram
system.l2bus.snoop_fanout::max_value                2                       # Request fanout histogram
system.l2bus.snoop_fanout::total                30303                       # Request fanout histogram
system.l2bus.respLayer1.occupancy            20258397                       # Layer occupancy (ticks)
system.l2bus.respLayer1.utilization               1.8                       # Layer utilization (%)
system.l2bus.reqLayer0.occupancy             18955140                       # Layer occupancy (ticks)
system.l2bus.reqLayer0.utilization                1.7                       # Layer utilization (%)
system.l2bus.respLayer0.occupancy             3506397                       # Layer occupancy (ticks)
system.l2bus.respLayer0.utilization               0.3                       # Layer utilization (%)
system.clk_domain.clock                           400                       # Clock period in ticks
system.clk_domain.voltage_domain.voltage            1                       # Voltage in Volts
system.cpu.pwrStateResidencyTicks::ON      1096338800                       # Cumulative time (in ticks) in various power states
system.cpu.icache.pwrStateResidencyTicks::UNDEFINED   1096338800                       # Cumulative time (in ticks) in various power states
system.cpu.icache.demand_hits::.cpu.inst       239165                       # number of demand (read+write) hits
system.cpu.icache.demand_hits::total           239165                       # number of demand (read+write) hits
system.cpu.icache.overall_hits::.cpu.inst       239165                       # number of overall hits
system.cpu.icache.overall_hits::total          239165                       # number of overall hits
system.cpu.icache.demand_misses::.cpu.inst         3650                       # number of demand (read+write) misses
system.cpu.icache.demand_misses::total           3650                       # number of demand (read+write) misses
system.cpu.icache.overall_misses::.cpu.inst         3650                       # number of overall misses
system.cpu.icache.overall_misses::total          3650                       # number of overall misses
system.cpu.icache.demand_miss_latency::.cpu.inst    180230800                       # number of demand (read+write) miss cycles
system.cpu.icache.demand_miss_latency::total    180230800                       # number of demand (read+write) miss cycles
system.cpu.icache.overall_miss_latency::.cpu.inst    180230800                       # number of overall miss cycles
system.cpu.icache.overall_miss_latency::total    180230800                       # number of overall miss cycles
system.cpu.icache.demand_accesses::.cpu.inst       242815                       # number of demand (read+write) accesses
system.cpu.icache.demand_accesses::total       242815                       # number of demand (read+write) accesses
system.cpu.icache.overall_accesses::.cpu.inst       242815                       # number of overall (read+write) accesses
system.cpu.icache.overall_accesses::total       242815                       # number of overall (read+write) accesses
system.cpu.icache.demand_miss_rate::.cpu.inst     0.015032                       # miss rate for demand accesses
system.cpu.icache.demand_miss_rate::total     0.015032                       # miss rate for demand accesses
system.cpu.icache.overall_miss_rate::.cpu.inst     0.015032                       # miss rate for overall accesses
system.cpu.icache.overall_miss_rate::total     0.015032                       # miss rate for overall accesses
system.cpu.icache.demand_avg_miss_latency::.cpu.inst 49378.301370                       # average overall miss latency
system.cpu.icache.demand_avg_miss_latency::total 49378.301370                       # average overall miss latency
system.cpu.icache.overall_avg_miss_latency::.cpu.inst 49378.301370                       # average overall miss latency
system.cpu.icache.overall_avg_miss_latency::total 49378.301370                       # average overall miss latency
system.cpu.icache.blocked_cycles::no_mshrs           39                       # number of cycles access was blocked
system.cpu.icache.blocked_cycles::no_targets            0                       # number of cycles access was blocked
system.cpu.icache.blocked::no_mshrs                 2                       # number of cycles access was blocked
system.cpu.icache.blocked::no_targets               0                       # number of cycles access was blocked
system.cpu.icache.avg_blocked_cycles::no_mshrs    19.500000                       # average number of cycles each access was blocked
system.cpu.icache.avg_blocked_cycles::no_targets          nan                       # average number of cycles each access was blocked
system.cpu.icache.demand_mshr_hits::.cpu.inst          729                       # number of demand (read+write) MSHR hits
system.cpu.icache.demand_mshr_hits::total          729                       # number of demand (read+write) MSHR hits
system.cpu.icache.overall_mshr_hits::.cpu.inst          729                       # number of overall MSHR hits
system.cpu.icache.overall_mshr_hits::total          729                       # number of overall MSHR hits
system.cpu.icache.demand_mshr_misses::.cpu.inst         2921                       # number of demand (read+write) MSHR misses
system.cpu.icache.demand_mshr_misses::total         2921                       # number of demand (read+write) MSHR misses
system.cpu.icache.overall_mshr_misses::.cpu.inst         2921                       # number of overall MSHR misses
system.cpu.icache.overall_mshr_misses::total         2921                       # number of overall MSHR misses
system.cpu.icache.demand_mshr_miss_latency::.cpu.inst    143876400                       # number of demand (read+write) MSHR miss cycles
system.cpu.icache.demand_mshr_miss_latency::total    143876400                       # number of demand (read+write) MSHR miss cycles
system.cpu.icache.overall_mshr_miss_latency::.cpu.inst    143876400                       # number of overall MSHR miss cycles
system.cpu.icache.overall_mshr_miss_latency::total    143876400                       # number of overall MSHR miss cycles
system.cpu.icache.demand_mshr_miss_rate::.cpu.inst     0.012030                       # mshr miss rate for demand accesses
system.cpu.icache.demand_mshr_miss_rate::total     0.012030                       # mshr miss rate for demand accesses
system.cpu.icache.overall_mshr_miss_rate::.cpu.inst     0.012030                       # mshr miss rate for overall accesses
system.cpu.icache.overall_mshr_miss_rate::total     0.012030                       # mshr miss rate for overall accesses
system.cpu.icache.demand_avg_mshr_miss_latency::.cpu.inst 49255.871277                       # average overall mshr miss latency
system.cpu.icache.demand_avg_mshr_miss_latency::total 49255.871277                       # average overall mshr miss latency
system.cpu.icache.overall_avg_mshr_miss_latency::.cpu.inst 49255.871277                       # average overall mshr miss latency
system.cpu.icache.overall_avg_mshr_miss_latency::total 49255.871277                       # average overall mshr miss latency
system.cpu.icache.replacements                   2665                       # number of replacements
system.cpu.icache.ReadReq_hits::.cpu.inst       239165                       # number of ReadReq hits
system.cpu.icache.ReadReq_hits::total          239165                       # number of ReadReq hits
system.cpu.icache.ReadReq_misses::.cpu.inst         3650                       # number of ReadReq misses
system.cpu.icache.ReadReq_misses::total          3650                       # number of ReadReq misses
system.cpu.icache.ReadReq_miss_latency::.cpu.inst    180230800                       # number of ReadReq miss cycles
system.cpu.icache.ReadReq_miss_latency::total    180230800                       # number of ReadReq miss cycles
system.cpu.icache.ReadReq_accesses::.cpu.inst       242815                       # number of ReadReq accesses(hits+misses)
system.cpu.icache.ReadReq_accesses::total       242815                       # number of ReadReq accesses(hits+misses)
system.cpu.icache.ReadReq_miss_rate::.cpu.inst     0.015032                       # miss rate for ReadReq accesses
system.cpu.icache.ReadReq_miss_rate::total     0.015032                       # miss rate for ReadReq accesses
system.cpu.icache.ReadReq_avg_miss_latency::.cpu.inst 49378.301370                       # average ReadReq miss latency
system.cpu.icache.ReadReq_avg_miss_latency::total 49378.301370                       # average ReadReq miss latency
system.cpu.icache.ReadReq_mshr_hits::.cpu.inst          729                       # number of ReadReq MSHR hits
system.cpu.icache.ReadReq_mshr_hits::total          729                       # number of ReadReq MSHR hits
system.cpu.icache.ReadReq_mshr_misses::.cpu.inst         2921                       # number of ReadReq MSHR misses
system.cpu.icache.ReadReq_mshr_misses::total         2921                       # number of ReadReq MSHR misses
system.cpu.icache.ReadReq_mshr_miss_latency::.cpu.inst    143876400                       # number of ReadReq MSHR miss cycles
system.cpu.icache.ReadReq_mshr_miss_latency::total    143876400                       # number of ReadReq MSHR miss cycles
system.cpu.icache.ReadReq_mshr_miss_rate::.cpu.inst     0.012030                       # mshr miss rate for ReadReq accesses
system.cpu.icache.ReadReq_mshr_miss_rate::total     0.012030                       # mshr miss rate for ReadReq accesses
system.cpu.icache.ReadReq_avg_mshr_miss_latency::.cpu.inst 49255.871277                       # average ReadReq mshr miss latency
system.cpu.icache.ReadReq_avg_mshr_miss_latency::total 49255.871277                       # average ReadReq mshr miss latency
system.cpu.icache.prefetcher.pwrStateResidencyTicks::UNDEFINED   1096338800                       # Cumulative time (in ticks) in various power states
system.cpu.icache.tags.pwrStateResidencyTicks::UNDEFINED   1096338800                       # Cumulative time (in ticks) in various power states
system.cpu.icache.tags.tagsinuse           253.476850                       # Cycle average of tags in use
system.cpu.icache.tags.total_refs              230348                       # Total number of references to valid blocks.
system.cpu.icache.tags.sampled_refs              2665                       # Sample count of references to valid blocks.
system.cpu.icache.tags.avg_refs             86.434522                       # Average number of references to valid blocks.
system.cpu.icache.tags.warmup_cycle             66400                       # Cycle when the warmup percentage was hit.
system.cpu.icache.tags.occ_blocks::.cpu.inst   253.476850                       # Average occupied blocks per requestor
system.cpu.icache.tags.occ_percent::.cpu.inst     0.990144                       # Average percentage of cache occupancy
system.cpu.icache.tags.occ_percent::total     0.990144                       # Average percentage of cache occupancy
system.cpu.icache.tags.occ_task_id_blocks::1024          256                       # Occupied blocks per task id
system.cpu.icache.tags.age_task_id_blocks_1024::0          108                       # Occupied blocks per task id
system.cpu.icache.tags.age_task_id_blocks_1024::1          127                       # Occupied blocks per task id
system.cpu.icache.tags.age_task_id_blocks_1024::2           18                       # Occupied blocks per task id
system.cpu.icache.tags.age_task_id_blocks_1024::3            3                       # Occupied blocks per task id
system.cpu.icache.tags.occ_task_id_percent::1024            1                       # Percentage of cache occupancy per task id
system.cpu.icache.tags.tag_accesses            488551                       # Number of tag accesses
system.cpu.icache.tags.data_accesses           488551                       # Number of data accesses
system.cpu.dtb.walker.pwrStateResidencyTicks::UNDEFINED   1096338800                       # Cumulative time (in ticks) in various power states
system.cpu.interrupts.clk_domain.clock           6400                       # Clock period in ticks
system.cpu.itb.walker.pwrStateResidencyTicks::UNDEFINED   1096338800                       # Cumulative time (in ticks) in various power states
system.cpu.dcache.pwrStateResidencyTicks::UNDEFINED   1096338800                       # Cumulative time (in ticks) in various power states
system.cpu.dcache.demand_hits::.cpu.data       678450                       # number of demand (read+write) hits
system.cpu.dcache.demand_hits::total           678450                       # number of demand (read+write) hits
system.cpu.dcache.overall_hits::.cpu.data       678450                       # number of overall hits
system.cpu.dcache.overall_hits::total          678450                       # number of overall hits
system.cpu.dcache.demand_misses::.cpu.data        34706                       # number of demand (read+write) misses
system.cpu.dcache.demand_misses::total          34706                       # number of demand (read+write) misses
system.cpu.dcache.overall_misses::.cpu.data        34706                       # number of overall misses
system.cpu.dcache.overall_misses::total         34706                       # number of overall misses
system.cpu.dcache.demand_miss_latency::.cpu.data   1675393600                       # number of demand (read+write) miss cycles
system.cpu.dcache.demand_miss_latency::total   1675393600                       # number of demand (read+write) miss cycles
system.cpu.dcache.overall_miss_latency::.cpu.data   1675393600                       # number of overall miss cycles
system.cpu.dcache.overall_miss_latency::total   1675393600                       # number of overall miss cycles
system.cpu.dcache.demand_accesses::.cpu.data       713156                       # number of demand (read+write) accesses
system.cpu.dcache.demand_accesses::total       713156                       # number of demand (read+write) accesses
system.cpu.dcache.overall_accesses::.cpu.data       713156                       # number of overall (read+write) accesses
system.cpu.dcache.overall_accesses::total       713156                       # number of overall (read+write) accesses
system.cpu.dcache.demand_miss_rate::.cpu.data     0.048665                       # miss rate for demand accesses
system.cpu.dcache.demand_miss_rate::total     0.048665                       # miss rate for demand accesses
system.cpu.dcache.overall_miss_rate::.cpu.data     0.048665                       # miss rate for overall accesses
system.cpu.dcache.overall_miss_rate::total     0.048665                       # miss rate for overall accesses
system.cpu.dcache.demand_avg_miss_latency::.cpu.data 48273.889241                       # average overall miss latency
system.cpu.dcache.demand_avg_miss_latency::total 48273.889241                       # average overall miss latency
system.cpu.dcache.overall_avg_miss_latency::.cpu.data 48273.889241                       # average overall miss latency
system.cpu.dcache.overall_avg_miss_latency::total 48273.889241                       # average overall miss latency
system.cpu.dcache.blocked_cycles::no_mshrs        29468                       # number of cycles access was blocked
system.cpu.dcache.blocked_cycles::no_targets          138                       # number of cycles access was blocked
system.cpu.dcache.blocked::no_mshrs               773                       # number of cycles access was blocked
system.cpu.dcache.blocked::no_targets               1                       # number of cycles access was blocked
system.cpu.dcache.avg_blocked_cycles::no_mshrs    38.121604                       # average number of cycles each access was blocked
system.cpu.dcache.avg_blocked_cycles::no_targets          138                       # average number of cycles each access was blocked
system.cpu.dcache.unused_prefetches              1731                       # number of HardPF blocks evicted w/o reference
system.cpu.dcache.writebacks::.writebacks         2781                       # number of writebacks
system.cpu.dcache.writebacks::total              2781                       # number of writebacks
system.cpu.dcache.demand_mshr_hits::.cpu.data        22104                       # number of demand (read+write) MSHR hits
system.cpu.dcache.demand_mshr_hits::total        22104                       # number of demand (read+write) MSHR hits
system.cpu.dcache.overall_mshr_hits::.cpu.data        22104                       # number of overall MSHR hits
system.cpu.dcache.overall_mshr_hits::total        22104                       # number of overall MSHR hits
system.cpu.dcache.demand_mshr_misses::.cpu.data        12602                       # number of demand (read+write) MSHR misses
system.cpu.dcache.demand_mshr_misses::total        12602                       # number of demand (read+write) MSHR misses
system.cpu.dcache.overall_mshr_misses::.cpu.data        12602                       # number of overall MSHR misses
system.cpu.dcache.overall_mshr_misses::.cpu.dcache.prefetcher         4279                       # number of overall MSHR misses
system.cpu.dcache.overall_mshr_misses::total        16881                       # number of overall MSHR misses
system.cpu.dcache.demand_mshr_miss_latency::.cpu.data    575214800                       # number of demand (read+write) MSHR miss cycles
system.cpu.dcache.demand_mshr_miss_latency::total    575214800                       # number of demand (read+write) MSHR miss cycles
system.cpu.dcache.overall_mshr_miss_latency::.cpu.data    575214800                       # number of overall MSHR miss cycles
system.cpu.dcache.overall_mshr_miss_latency::.cpu.dcache.prefetcher    247694213                       # number of overall MSHR miss cycles
system.cpu.dcache.overall_mshr_miss_latency::total    822909013                       # number of overall MSHR miss cycles
system.cpu.dcache.demand_mshr_miss_rate::.cpu.data     0.017671                       # mshr miss rate for demand accesses
system.cpu.dcache.demand_mshr_miss_rate::total     0.017671                       # mshr miss rate for demand accesses
system.cpu.dcache.overall_mshr_miss_rate::.cpu.data     0.017671                       # mshr miss rate for overall accesses
system.cpu.dcache.overall_mshr_miss_rate::.cpu.dcache.prefetcher          inf                       # mshr miss rate for overall accesses
system.cpu.dcache.overall_mshr_miss_rate::total     0.023671                       # mshr miss rate for overall accesses
system.cpu.dcache.demand_avg_mshr_miss_latency::.cpu.data 45644.723060                       # average overall mshr miss latency
system.cpu.dcache.demand_avg_mshr_miss_latency::total 45644.723060                       # average overall mshr miss latency
system.cpu.dcache.overall_avg_mshr_miss_latency::.cpu.data 45644.723060                       # average overall mshr miss latency
system.cpu.dcache.overall_avg_mshr_miss_latency::.cpu.dcache.prefetcher 57886.004440                       # average overall mshr miss latency
system.cpu.dcache.overall_avg_mshr_miss_latency::total 48747.646052                       # average overall mshr miss latency
system.cpu.dcache.replacements                  15857                       # number of replacements
system.cpu.dcache.ReadReq_hits::.cpu.data       505283                       # number of ReadReq hits
system.cpu.dcache.ReadReq_hits::total          505283                       # number of ReadReq hits
system.cpu.dcache.ReadReq_misses::.cpu.data        32569                       # number of ReadReq misses
system.cpu.dcache.ReadReq_misses::total         32569                       # number of ReadReq misses
system.cpu.dcache.ReadReq_miss_latency::.cpu.data   1570366800                       # number of ReadReq miss cycles
system.cpu.dcache.ReadReq_miss_latency::total   1570366800                       # number of ReadReq miss cycles
system.cpu.dcache.ReadReq_accesses::.cpu.data       537852                       # number of ReadReq accesses(hits+misses)
system.cpu.dcache.ReadReq_accesses::total       537852                       # number of ReadReq accesses(hits+misses)
system.cpu.dcache.ReadReq_miss_rate::.cpu.data     0.060554                       # miss rate for ReadReq accesses
system.cpu.dcache.ReadReq_miss_rate::total     0.060554                       # miss rate for ReadReq accesses
system.cpu.dcache.ReadReq_avg_miss_latency::.cpu.data 48216.610888                       # average ReadReq miss latency
system.cpu.dcache.ReadReq_avg_miss_latency::total 48216.610888                       # average ReadReq miss latency
system.cpu.dcache.ReadReq_mshr_hits::.cpu.data        22066                       # number of ReadReq MSHR hits
system.cpu.dcache.ReadReq_mshr_hits::total        22066                       # number of ReadReq MSHR hits
system.cpu.dcache.ReadReq_mshr_misses::.cpu.data        10503                       # number of ReadReq MSHR misses
system.cpu.dcache.ReadReq_mshr_misses::total        10503                       # number of ReadReq MSHR misses
system.cpu.dcache.ReadReq_mshr_miss_latency::.cpu.data    473288400                       # number of ReadReq MSHR miss cycles
system.cpu.dcache.ReadReq_mshr_miss_latency::total    473288400                       # number of ReadReq MSHR miss cycles
system.cpu.dcache.ReadReq_mshr_miss_rate::.cpu.data     0.019528                       # mshr miss rate for ReadReq accesses
system.cpu.dcache.ReadReq_mshr_miss_rate::total     0.019528                       # mshr miss rate for ReadReq accesses
system.cpu.dcache.ReadReq_avg_mshr_miss_latency::.cpu.data 45062.210797                       # average ReadReq mshr miss latency
system.cpu.dcache.ReadReq_avg_mshr_miss_latency::total 45062.210797                       # average ReadReq mshr miss latency
system.cpu.dcache.WriteReq_hits::.cpu.data       173167                       # number of WriteReq hits
system.cpu.dcache.WriteReq_hits::total         173167                       # number of WriteReq hits
system.cpu.dcache.WriteReq_misses::.cpu.data         2137                       # number of WriteReq misses
system.cpu.dcache.WriteReq_misses::total         2137                       # number of WriteReq misses
system.cpu.dcache.WriteReq_miss_latency::.cpu.data    105026800                       # number of WriteReq miss cycles
system.cpu.dcache.WriteReq_miss_latency::total    105026800                       # number of WriteReq miss cycles
system.cpu.dcache.WriteReq_accesses::.cpu.data       175304                       # number of WriteReq accesses(hits+misses)
system.cpu.dcache.WriteReq_accesses::total       175304                       # number of WriteReq accesses(hits+misses)
system.cpu.dcache.WriteReq_miss_rate::.cpu.data     0.012190                       # miss rate for WriteReq accesses
system.cpu.dcache.WriteReq_miss_rate::total     0.012190                       # miss rate for WriteReq accesses
system.cpu.dcache.WriteReq_avg_miss_latency::.cpu.data 49146.841366                       # average WriteReq miss latency
system.cpu.dcache.WriteReq_avg_miss_latency::total 49146.841366                       # average WriteReq miss latency
system.cpu.dcache.WriteReq_mshr_hits::.cpu.data           38                       # number of WriteReq MSHR hits
system.cpu.dcache.WriteReq_mshr_hits::total           38                       # number of WriteReq MSHR hits
system.cpu.dcache.WriteReq_mshr_misses::.cpu.data         2099                       # number of WriteReq MSHR misses
system.cpu.dcache.WriteReq_mshr_misses::total         2099                       # number of WriteReq MSHR misses
system.cpu.dcache.WriteReq_mshr_miss_latency::.cpu.data    101926400                       # number of WriteReq MSHR miss cycles
[...]
system.l2cache.overall_mshr_miss_latency::total     23471960                       # number of overall MSHR miss cycles
system.l2cache.demand_mshr_miss_rate::.cpu.inst     0.512035                       # mshr miss rate for demand accesses
system.l2cache.demand_mshr_miss_rate::.cpu.data     0.520179                       # mshr miss rate for demand accesses
system.l2cache.demand_mshr_miss_rate::.cpu.dcache.prefetcher     0.755102                       # mshr miss rate for demand accesses
system.l2cache.demand_mshr_miss_rate::total     0.530864                       # mshr miss rate for demand accesses
system.l2cache.overall_mshr_miss_rate::.cpu.inst     0.512035                       # mshr miss rate for overall accesses
system.l2cache.overall_mshr_miss_rate::.cpu.data     0.520179                       # mshr miss rate for overall accesses
system.l2cache.overall_mshr_miss_rate::.cpu.dcache.prefetcher     0.755102                       # mshr miss rate for overall accesses
system.l2cache.overall_mshr_miss_rate::.l2cache.prefetcher          inf                       # mshr miss rate for overall accesses
system.l2cache.overall_mshr_miss_rate::total     0.533608                       # mshr miss rate for overall accesses
system.l2cache.demand_avg_mshr_miss_latency::.cpu.inst 60562.393162                       # average overall mshr miss latency
system.l2cache.demand_avg_mshr_miss_latency::.cpu.data 59986.206897                       # average overall mshr miss latency
system.l2cache.demand_avg_mshr_miss_latency::.cpu.dcache.prefetcher 59934.135135                       # average overall mshr miss latency
system.l2cache.demand_avg_mshr_miss_latency::total 60329.620155                       # average overall mshr miss latency
system.l2cache.overall_avg_mshr_miss_latency::.cpu.inst 60562.393162                       # average overall mshr miss latency
system.l2cache.overall_avg_mshr_miss_latency::.cpu.data 59986.206897                       # average overall mshr miss latency
system.l2cache.overall_avg_mshr_miss_latency::.cpu.dcache.prefetcher 59934.135135                       # average overall mshr miss latency
system.l2cache.overall_avg_mshr_miss_latency::.l2cache.prefetcher 62198.500000                       # average overall mshr miss latency
system.l2cache.overall_avg_mshr_miss_latency::total 60339.228792                       # average overall mshr miss latency
system.l2cache.replacements                       399                       # number of replacements
system.l2cache.WritebackDirty_hits::.writebacks           70                       # number of WritebackDirty hits
system.l2cache.WritebackDirty_hits::total           70                       # number of WritebackDirty hits
system.l2cache.WritebackDirty_accesses::.writebacks           70                       # number of WritebackDirty accesses(hits+misses)
system.l2cache.WritebackDirty_accesses::total           70                       # number of WritebackDirty accesses(hits+misses)
system.l2cache.CleanEvict_mshr_misses::.writebacks            8                       # number of CleanEvict MSHR misses
system.l2cache.CleanEvict_mshr_misses::total            8                       # number of CleanEvict MSHR misses
system.l2cache.CleanEvict_mshr_miss_rate::.writebacks          inf                       # mshr miss rate for CleanEvict accesses
system.l2cache.CleanEvict_mshr_miss_rate::total          inf                       # mshr miss rate for CleanEvict accesses
system.l2cache.HardPFReq_mshr_misses::.l2cache.prefetcher            2                       # number of HardPFReq MSHR misses
system.l2cache.HardPFReq_mshr_misses::total            2                       # number of HardPFReq MSHR misses
system.l2cache.HardPFReq_mshr_miss_latency::.l2cache.prefetcher       124397                       # number of HardPFReq MSHR miss cycles
system.l2cache.HardPFReq_mshr_miss_latency::total       124397                       # number of HardPFReq MSHR miss cycles
system.l2cache.HardPFReq_mshr_miss_rate::.l2cache.prefetcher          inf                       # mshr miss rate for HardPFReq accesses
system.l2cache.HardPFReq_mshr_miss_rate::total          inf                       # mshr miss rate for HardPFReq accesses
system.l2cache.HardPFReq_avg_mshr_miss_latency::.l2cache.prefetcher 62198.500000                       # average HardPFReq mshr miss latency
system.l2cache.HardPFReq_avg_mshr_miss_latency::total 62198.500000                       # average HardPFReq mshr miss latency
system.l2cache.ReadExReq_hits::.cpu.data            5                       # number of ReadExReq hits
system.l2cache.ReadExReq_hits::total                5                       # number of ReadExReq hits
system.l2cache.ReadExReq_misses::.cpu.data            6                       # number of ReadExReq misses
system.l2cache.ReadExReq_misses::total              6                       # number of ReadExReq misses
system.l2cache.ReadExReq_miss_latency::.cpu.data       381600                       # number of ReadExReq miss cycles
system.l2cache.ReadExReq_miss_latency::total       381600                       # number of ReadExReq miss cycles
system.l2cache.ReadExReq_accesses::.cpu.data           11                       # number of ReadExReq accesses(hits+misses)
system.l2cache.ReadExReq_accesses::total           11                       # number of ReadExReq accesses(hits+misses)
system.l2cache.ReadExReq_miss_rate::.cpu.data     0.545455                       # miss rate for ReadExReq accesses
system.l2cache.ReadExReq_miss_rate::total     0.545455                       # miss rate for ReadExReq accesses
system.l2cache.ReadExReq_avg_miss_latency::.cpu.data        63600                       # average ReadExReq miss latency
system.l2cache.ReadExReq_avg_miss_latency::total        63600                       # average ReadExReq miss latency
system.l2cache.ReadExReq_mshr_misses::.cpu.data            6                       # number of ReadExReq MSHR misses
system.l2cache.ReadExReq_mshr_misses::total            6                       # number of ReadExReq MSHR misses
system.l2cache.ReadExReq_mshr_miss_latency::.cpu.data       333600                       # number of ReadExReq MSHR miss cycles
system.l2cache.ReadExReq_mshr_miss_latency::total       333600                       # number of ReadExReq MSHR miss cycles
system.l2cache.ReadExReq_mshr_miss_rate::.cpu.data     0.545455                       # mshr miss rate for ReadExReq accesses
system.l2cache.ReadExReq_mshr_miss_rate::total     0.545455                       # mshr miss rate for ReadExReq accesses
system.l2cache.ReadExReq_avg_mshr_miss_latency::.cpu.data        55600                       # average ReadExReq mshr miss latency
system.l2cache.ReadExReq_avg_mshr_miss_latency::total        55600                       # average ReadExReq mshr miss latency
system.l2cache.ReadSharedReq_hits::.cpu.inst          223                       # number of ReadSharedReq hits
system.l2cache.ReadSharedReq_hits::.cpu.data          102                       # number of ReadSharedReq hits
system.l2cache.ReadSharedReq_hits::.cpu.dcache.prefetcher           12                       # number of ReadSharedReq hits
system.l2cache.ReadSharedReq_hits::total          337                       # number of ReadSharedReq hits
system.l2cache.ReadSharedReq_misses::.cpu.inst          234                       # number of ReadSharedReq misses
system.l2cache.ReadSharedReq_misses::.cpu.data          110                       # number of ReadSharedReq misses
system.l2cache.ReadSharedReq_misses::.cpu.dcache.prefetcher           37                       # number of ReadSharedReq misses
system.l2cache.ReadSharedReq_misses::total          381                       # number of ReadSharedReq misses
system.l2cache.ReadSharedReq_miss_latency::.cpu.inst     16043600                       # number of ReadSharedReq miss cycles
system.l2cache.ReadSharedReq_miss_latency::.cpu.data      7504800                       # number of ReadSharedReq miss cycles
system.l2cache.ReadSharedReq_miss_latency::.cpu.dcache.prefetcher      2513563                       # number of ReadSharedReq miss cycles
system.l2cache.ReadSharedReq_miss_latency::total     26061963                       # number of ReadSharedReq miss cycles
system.l2cache.ReadSharedReq_accesses::.cpu.inst          457                       # number of ReadSharedReq accesses(hits+misses)
system.l2cache.ReadSharedReq_accesses::.cpu.data          212                       # number of ReadSharedReq accesses(hits+misses)
system.l2cache.ReadSharedReq_accesses::.cpu.dcache.prefetcher           49                       # number of ReadSharedReq accesses(hits+misses)
system.l2cache.ReadSharedReq_accesses::total          718                       # number of ReadSharedReq accesses(hits+misses)
system.l2cache.ReadSharedReq_miss_rate::.cpu.inst     0.512035                       # miss rate for ReadSharedReq accesses
system.l2cache.ReadSharedReq_miss_rate::.cpu.data     0.518868                       # miss rate for ReadSharedReq accesses
system.l2cache.ReadSharedReq_miss_rate::.cpu.dcache.prefetcher     0.755102                       # miss rate for ReadSharedReq accesses
system.l2cache.ReadSharedReq_miss_rate::total     0.530641                       # miss rate for ReadSharedReq accesses
system.l2cache.ReadSharedReq_avg_miss_latency::.cpu.inst 68562.393162                       # average ReadSharedReq miss latency
system.l2cache.ReadSharedReq_avg_miss_latency::.cpu.data 68225.454545                       # average ReadSharedReq miss latency
system.l2cache.ReadSharedReq_avg_miss_latency::.cpu.dcache.prefetcher 67934.135135                       # average ReadSharedReq miss latency
system.l2cache.ReadSharedReq_avg_miss_latency::total 68404.102362                       # average ReadSharedReq miss latency
system.l2cache.ReadSharedReq_mshr_misses::.cpu.inst          234                       # number of ReadSharedReq MSHR misses
system.l2cache.ReadSharedReq_mshr_misses::.cpu.data          110                       # number of ReadSharedReq MSHR misses
system.l2cache.ReadSharedReq_mshr_misses::.cpu.dcache.prefetcher           37                       # number of ReadSharedReq MSHR misses
system.l2cache.ReadSharedReq_mshr_misses::total          381                       # number of ReadSharedReq MSHR misses
system.l2cache.ReadSharedReq_mshr_miss_latency::.cpu.inst     14171600                       # number of ReadSharedReq MSHR miss cycles
system.l2cache.ReadSharedReq_mshr_miss_latency::.cpu.data      6624800                       # number of ReadSharedReq MSHR miss cycles
system.l2cache.ReadSharedReq_mshr_miss_latency::.cpu.dcache.prefetcher      2217563                       # number of ReadSharedReq MSHR miss cycles
system.l2cache.ReadSharedReq_mshr_miss_latency::total     23013963                       # number of ReadSharedReq MSHR miss cycles
system.l2cache.ReadSharedReq_mshr_miss_rate::.cpu.inst     0.512035                       # mshr miss rate for ReadSharedReq accesses
system.l2cache.ReadSharedReq_mshr_miss_rate::.cpu.data     0.518868                       # mshr miss rate for ReadSharedReq accesses
system.l2cache.ReadSharedReq_mshr_miss_rate::.cpu.dcache.prefetcher     0.755102                       # mshr miss rate for ReadSharedReq accesses
system.l2cache.ReadSharedReq_mshr_miss_rate::total     0.530641                       # mshr miss rate for ReadSharedReq accesses
system.l2cache.ReadSharedReq_avg_mshr_miss_latency::.cpu.inst 60562.393162                       # average ReadSharedReq mshr miss latency
system.l2cache.ReadSharedReq_avg_mshr_miss_latency::.cpu.data 60225.454545                       # average ReadSharedReq mshr miss latency
system.l2cache.ReadSharedReq_avg_mshr_miss_latency::.cpu.dcache.prefetcher 59934.135135                       # average ReadSharedReq mshr miss latency
system.l2cache.ReadSharedReq_avg_mshr_miss_latency::total 60404.102362                       # average ReadSharedReq mshr miss latency
system.l2cache.prefetcher.pwrStateResidencyTicks::UNDEFINED     28198800                       # Cumulative time (in ticks) in various power states
system.l2cache.tags.pwrStateResidencyTicks::UNDEFINED     28198800                       # Cumulative time (in ticks) in various power states
system.l2cache.tags.tagsinuse                    4096                       # Cycle average of tags in use
system.l2cache.tags.total_refs                  13966                       # Total number of references to valid blocks.
system.l2cache.tags.sampled_refs                 4495                       # Sample count of references to valid blocks.
system.l2cache.tags.avg_refs                 3.107008                       # Average number of references to valid blocks.
system.l2cache.tags.warmup_cycle                    0                       # Cycle when the warmup percentage was hit.
system.l2cache.tags.occ_blocks::.writebacks    40.722967                       # Average occupied blocks per requestor
system.l2cache.tags.occ_blocks::.cpu.inst  1143.868367                       # Average occupied blocks per requestor
system.l2cache.tags.occ_blocks::.cpu.data  1816.141905                       # Average occupied blocks per requestor
system.l2cache.tags.occ_blocks::.cpu.dcache.prefetcher   972.002424                       # Average occupied blocks per requestor
system.l2cache.tags.occ_blocks::.l2cache.prefetcher   123.264337                       # Average occupied blocks per requestor
system.l2cache.tags.occ_percent::.writebacks     0.009942                       # Average percentage of cache occupancy
system.l2cache.tags.occ_percent::.cpu.inst     0.279265                       # Average percentage of cache occupancy
system.l2cache.tags.occ_percent::.cpu.data     0.443394                       # Average percentage of cache occupancy
system.l2cache.tags.occ_percent::.cpu.dcache.prefetcher     0.237305                       # Average percentage of cache occupancy
system.l2cache.tags.occ_percent::.l2cache.prefetcher     0.030094                       # Average percentage of cache occupancy
system.l2cache.tags.occ_percent::total              1                       # Average percentage of cache occupancy
system.l2cache.tags.occ_task_id_blocks::1022         1038                       # Occupied blocks per task id
system.l2cache.tags.occ_task_id_blocks::1024         3058                       # Occupied blocks per task id
system.l2cache.tags.age_task_id_blocks_1022::0           10                       # Occupied blocks per task id
system.l2cache.tags.age_task_id_blocks_1022::1          120                       # Occupied blocks per task id
system.l2cache.tags.age_task_id_blocks_1022::2          906                       # Occupied blocks per task id
system.l2cache.tags.age_task_id_blocks_1022::3            2                       # Occupied blocks per task id
system.l2cache.tags.age_task_id_blocks_1024::0          166                       # Occupied blocks per task id
system.l2cache.tags.age_task_id_blocks_1024::1          915                       # Occupied blocks per task id
system.l2cache.tags.age_task_id_blocks_1024::2         1934                       # Occupied blocks per task id
system.l2cache.tags.age_task_id_blocks_1024::3           43                       # Occupied blocks per task id
system.l2cache.tags.occ_task_id_percent::1022     0.253418                       # Percentage of cache occupancy per task id
system.l2cache.tags.occ_task_id_percent::1024     0.746582                       # Percentage of cache occupancy per task id
system.l2cache.tags.tag_accesses                12055                       # Number of tag accesses
system.l2cache.tags.data_accesses               12055                       # Number of data accesses
system.mem_ctrl.pwrStateResidencyTicks::UNDEFINED     28198800                       # Cumulative time (in ticks) in various power states
system.mem_ctrl.bytes_read::.cpu.inst           14976                       # Number of bytes read from this memory
system.mem_ctrl.bytes_read::.cpu.data            7424                       # Number of bytes read from this memory
system.mem_ctrl.bytes_read::.cpu.dcache.prefetcher         2368                       # Number of bytes read from this memory
system.mem_ctrl.bytes_read::.l2cache.prefetcher          128                       # Number of bytes read from this memory
system.mem_ctrl.bytes_read::total               24896                       # Number of bytes read from this memory
system.mem_ctrl.bytes_inst_read::.cpu.inst        14976                       # Number of instructions bytes read from this memory
system.mem_ctrl.bytes_inst_read::total          14976                       # Number of instructions bytes read from this memory
system.mem_ctrl.bytes_written::.writebacks         1472                       # Number of bytes written to this memory
system.mem_ctrl.bytes_written::total             1472                       # Number of bytes written to this memory
system.mem_ctrl.num_reads::.cpu.inst              234                       # Number of read requests responded to by this memory
system.mem_ctrl.num_reads::.cpu.data              116                       # Number of read requests responded to by this memory
system.mem_ctrl.num_reads::.cpu.dcache.prefetcher           37                       # Number of read requests responded to by this memory
system.mem_ctrl.num_reads::.l2cache.prefetcher            2                       # Number of read requests responded to by this memory
system.mem_ctrl.num_reads::total                  389                       # Number of read requests responded to by this memory
system.mem_ctrl.num_writes::.writebacks            23                       # Number of write requests responded to by this memory
system.mem_ctrl.num_writes::total                  23                       # Number of write requests responded to by this memory
system.mem_ctrl.bw_read::.cpu.inst          531086429                       # Total read bandwidth from this memory (bytes/s)
system.mem_ctrl.bw_read::.cpu.data          263273614                       # Total read bandwidth from this memory (bytes/s)
system.mem_ctrl.bw_read::.cpu.dcache.prefetcher     83975205                       # Total read bandwidth from this memory (bytes/s)
system.mem_ctrl.bw_read::.l2cache.prefetcher      4539200                       # Total read bandwidth from this memory (bytes/s)
system.mem_ctrl.bw_read::total              882874449                       # Total read bandwidth from this memory (bytes/s)
system.mem_ctrl.bw_inst_read::.cpu.inst     531086429                       # Instruction read bandwidth from this memory (bytes/s)
system.mem_ctrl.bw_inst_read::total         531086429                       # Instruction read bandwidth from this memory (bytes/s)
system.mem_ctrl.bw_write::.writebacks        52200803                       # Write bandwidth from this memory (bytes/s)
system.mem_ctrl.bw_write::total              52200803                       # Write bandwidth from this memory (bytes/s)
system.mem_ctrl.bw_total::.writebacks        52200803                       # Total bandwidth to/from this memory (bytes/s)
system.mem_ctrl.bw_total::.cpu.inst         531086429                       # Total bandwidth to/from this memory (bytes/s)
system.mem_ctrl.bw_total::.cpu.data         263273614                       # Total bandwidth to/from this memory (bytes/s)
system.mem_ctrl.bw_total::.cpu.dcache.prefetcher     83975205                       # Total bandwidth to/from this memory (bytes/s)
system.mem_ctrl.bw_total::.l2cache.prefetcher      4539200                       # Total bandwidth to/from this memory (bytes/s)
system.mem_ctrl.bw_total::total             935075251                       # Total bandwidth to/from this memory (bytes/s)

---------- End Simulation Statistics   ----------
