
---------- Begin Simulation Statistics ----------
final_tick                                 1356622000                       # Number of ticks from beginning of simulation (restored from checkpoints and never reset)
host_inst_rate                                 193958                       # Simulator instruction rate (inst/s)
host_mem_usage                                4406848                       # Number of bytes of host memory used
host_op_rate                                   357100                       # Simulator op (including micro ops) rate (op/s)
host_seconds                                    15.21                       # Real time elapsed on the host
host_tick_rate                               89202128                       # Simulator tick rate (ticks/s)
sim_freq                                 1000000000000                       # Frequency of simulated ticks
sim_insts                                     2949781                       # Number of instructions simulated
sim_ops                                       5430916                       # Number of ops (including micro ops) simulated
sim_seconds                                  0.001357                       # Number of seconds simulated
sim_ticks                                  1356622000                       # Number of ticks simulated
system.cpu.branchPred.BTBCorrect                    0                       # Number of correct BTB predictions (this stat may not work properly.
system.cpu.branchPred.BTBHitPct              0.000000                       # BTB Hit Percentage
system.cpu.branchPred.BTBHits                       0                       # Number of BTB hits
system.cpu.branchPred.BTBLookups               581594                       # Number of BTB lookups
system.cpu.branchPred.RASInCorrect                  8                       # Number of incorrect RAS predictions.
system.cpu.branchPred.condIncorrect             24511                       # Number of conditional branches incorrect
system.cpu.branchPred.condPredicted            601088                       # Number of conditional branches predicted
system.cpu.branchPred.indirectHits             305967                       # Number of indirect target hits.
system.cpu.branchPred.indirectLookups          581594                       # Number of indirect predictor lookups.
system.cpu.branchPred.indirectMisses           275627                       # Number of indirect misses.
system.cpu.branchPred.lookups                  656248                       # Number of BP lookups
system.cpu.branchPred.usedRAS                   25773                       # Number of times the RAS was used to get a target.
system.cpu.branchPredindirectMispredicted        12189                       # Number of mispredicted indirect branches.
system.cpu.cc_regfile_reads                   3368873                       # number of cc regfile reads
system.cpu.cc_regfile_writes                  2462000                       # number of cc regfile writes
system.cpu.commit.amos                              0                       # Number of atomic instructions committed
system.cpu.commit.branchMispredicts             24627                       # The number of times a branch was mispredicted
system.cpu.commit.branches                     510020                       # Number of branches committed
system.cpu.commit.bw_lim_events                918375                       # number cycles where commit BW limit reached
system.cpu.commit.commitNonSpecStalls             760                       # The number of times commit has been forced to stall to communicate backwards
system.cpu.commit.commitSquashedInsts          904630                       # The number of squashed insts skipped by commit
system.cpu.commit.committedInsts              2949781                       # Number of instructions committed
system.cpu.commit.committedOps                5430916                       # Number of ops (including micro ops) committed
system.cpu.commit.committed_per_cycle::samples      2981076                       # Number of insts commited each cycle
system.cpu.commit.committed_per_cycle::mean     1.821797                       # Number of insts commited each cycle
system.cpu.commit.committed_per_cycle::stdev     1.737765                       # Number of insts commited each cycle
system.cpu.commit.committed_per_cycle::underflows            0      0.00%      0.00% # Number of insts commited each cycle
system.cpu.commit.committed_per_cycle::0      1209790     40.58%     40.58% # Number of insts commited each cycle
system.cpu.commit.committed_per_cycle::1       266375      8.94%     49.52% # Number of insts commited each cycle
system.cpu.commit.committed_per_cycle::2       268567      9.01%     58.53% # Number of insts commited each cycle
system.cpu.commit.committed_per_cycle::3       317969     10.67%     69.19% # Number of insts commited each cycle
system.cpu.commit.committed_per_cycle::4       918375     30.81%    100.00% # Number of insts commited each cycle
system.cpu.commit.committed_per_cycle::overflows            0      0.00%    100.00% # Number of insts commited each cycle
system.cpu.commit.committed_per_cycle::min_value            0                       # Number of insts commited each cycle
system.cpu.commit.committed_per_cycle::max_value            4                       # Number of insts commited each cycle
system.cpu.commit.committed_per_cycle::total      2981076                       # Number of insts commited each cycle
system.cpu.commit.fp_insts                     177375                       # Number of committed floating point instructions.
system.cpu.commit.function_calls                23725                       # Number of function calls committed.
system.cpu.commit.int_insts                   5293464                       # Number of committed integer instructions.
system.cpu.commit.loads                        724924                       # Number of loads committed
system.cpu.commit.membars                           1                       # Number of memory barriers committed
system.cpu.commit.op_class_0::No_OpClass        28716      0.53%      0.53% # Class of committed instruction
system.cpu.commit.op_class_0::IntAlu          4171363     76.81%     77.34% # Class of committed instruction
system.cpu.commit.op_class_0::IntMult            5806      0.11%     77.44% # Class of committed instruction
system.cpu.commit.op_class_0::IntDiv            37658      0.69%     78.14% # Class of committed instruction
system.cpu.commit.op_class_0::FloatAdd           6989      0.13%     78.27% # Class of committed instruction
system.cpu.commit.op_class_0::FloatCmp              0      0.00%     78.27% # Class of committed instruction
system.cpu.commit.op_class_0::FloatCvt           1248      0.02%     78.29% # Class of committed instruction
system.cpu.commit.op_class_0::FloatMult             0      0.00%     78.29% # Class of committed instruction
system.cpu.commit.op_class_0::FloatMultAcc            0      0.00%     78.29% # Class of committed instruction
system.cpu.commit.op_class_0::FloatDiv              0      0.00%     78.29% # Class of committed instruction
system.cpu.commit.op_class_0::FloatMisc             0      0.00%     78.29% # Class of committed instruction
system.cpu.commit.op_class_0::FloatSqrt             0      0.00%     78.29% # Class of committed instruction
system.cpu.commit.op_class_0::SimdAdd            6270      0.12%     78.40% # Class of committed instruction
system.cpu.commit.op_class_0::SimdAddAcc            0      0.00%     78.40% # Class of committed instruction
system.cpu.commit.op_class_0::SimdAlu           27748      0.51%     78.91% # Class of committed instruction
system.cpu.commit.op_class_0::SimdCmp               0      0.00%     78.91% # Class of committed instruction
system.cpu.commit.op_class_0::SimdCvt           28638      0.53%     79.44% # Class of committed instruction
system.cpu.commit.op_class_0::SimdMisc          43523      0.80%     80.24% # Class of committed instruction
system.cpu.commit.op_class_0::SimdMult              0      0.00%     80.24% # Class of committed instruction
system.cpu.commit.op_class_0::SimdMultAcc            0      0.00%     80.24% # Class of committed instruction
system.cpu.commit.op_class_0::SimdShift          1316      0.02%     80.27% # Class of committed instruction
system.cpu.commit.op_class_0::SimdShiftAcc            0      0.00%     80.27% # Class of committed instruction
system.cpu.commit.op_class_0::SimdDiv               0      0.00%     80.27% # Class of committed instruction
system.cpu.commit.op_class_0::SimdSqrt              0      0.00%     80.27% # Class of committed instruction
system.cpu.commit.op_class_0::SimdFloatAdd            0      0.00%     80.27% # Class of committed instruction
system.cpu.commit.op_class_0::SimdFloatAlu            0      0.00%     80.27% # Class of committed instruction
system.cpu.commit.op_class_0::SimdFloatCmp            0      0.00%     80.27% # Class of committed instruction
system.cpu.commit.op_class_0::SimdFloatCvt            0      0.00%     80.27% # Class of committed instruction
system.cpu.commit.op_class_0::SimdFloatDiv            0      0.00%     80.27% # Class of committed instruction
system.cpu.commit.op_class_0::SimdFloatMisc            0      0.00%     80.27% # Class of committed instruction
system.cpu.commit.op_class_0::SimdFloatMult            0      0.00%     80.27% # Class of committed instruction
system.cpu.commit.op_class_0::SimdFloatMultAcc            0      0.00%     80.27% # Class of committed instruction
system.cpu.commit.op_class_0::SimdFloatSqrt            0      0.00%     80.27% # Class of committed instruction
system.cpu.commit.op_class_0::SimdReduceAdd            0      0.00%     80.27% # Class of committed instruction
system.cpu.commit.op_class_0::SimdReduceAlu            0      0.00%     80.27% # Class of committed instruction
system.cpu.commit.op_class_0::SimdReduceCmp            0      0.00%     80.27% # Class of committed instruction
system.cpu.commit.op_class_0::SimdFloatReduceAdd            0      0.00%     80.27% # Class of committed instruction
system.cpu.commit.op_class_0::SimdFloatReduceCmp            0      0.00%     80.27% # Class of committed instruction
system.cpu.commit.op_class_0::SimdAes               0      0.00%     80.27% # Class of committed instruction
system.cpu.commit.op_class_0::SimdAesMix            0      0.00%     80.27% # Class of committed instruction
system.cpu.commit.op_class_0::SimdSha1Hash            0      0.00%     80.27% # Class of committed instruction
system.cpu.commit.op_class_0::SimdSha1Hash2            0      0.00%     80.27% # Class of committed instruction
system.cpu.commit.op_class_0::SimdSha256Hash            0      0.00%     80.27% # Class of committed instruction
system.cpu.commit.op_class_0::SimdSha256Hash2            0      0.00%     80.27% # Class of committed instruction
system.cpu.commit.op_class_0::SimdShaSigma2            0      0.00%     80.27% # Class of committed instruction
system.cpu.commit.op_class_0::SimdShaSigma3            0      0.00%     80.27% # Class of committed instruction
system.cpu.commit.op_class_0::SimdPredAlu            0      0.00%     80.27% # Class of committed instruction
system.cpu.commit.op_class_0::MemRead          693254     12.76%     93.03% # Class of committed instruction
system.cpu.commit.op_class_0::MemWrite         329906      6.07%     99.11% # Class of committed instruction
system.cpu.commit.op_class_0::FloatMemRead        31670      0.58%     99.69% # Class of committed instruction
system.cpu.commit.op_class_0::FloatMemWrite        16811      0.31%    100.00% # Class of committed instruction
system.cpu.commit.op_class_0::IprAccess             0      0.00%    100.00% # Class of committed instruction
system.cpu.commit.op_class_0::InstPrefetch            0      0.00%    100.00% # Class of committed instruction
system.cpu.commit.op_class_0::total           5430916                       # Class of committed instruction
system.cpu.commit.refs                        1071641                       # Number of memory references committed
system.cpu.commit.swp_count                         0                       # Number of s/w prefetches committed
system.cpu.commit.vec_insts                         0                       # Number of committed Vector instructions.
system.cpu.committedInsts                     2949781                       # Number of Instructions Simulated
system.cpu.committedOps                       5430916                       # Number of Ops (including micro ops) Simulated
system.cpu.cpi                               1.149765                       # CPI: Cycles Per Instruction
system.cpu.cpi_total                         1.149765                       # CPI: Total CPI of All Threads
system.cpu.dcache.prefetcher.num_hwpf_issued         8064                       # number of hwpf issued
system.cpu.dcache.prefetcher.pfBufferHit        33755                       # number of redundant prefetches already in prefetch queue
system.cpu.dcache.prefetcher.pfIdentified        48798                       # number of prefetch candidates identified
system.cpu.dcache.prefetcher.pfInCache              0                       # number of redundant prefetches already in cache/mshr dropped
system.cpu.dcache.prefetcher.pfRemovedFull            0                       # number of prefetches dropped due to prefetch queue size
system.cpu.dcache.prefetcher.pfSpanPage          4518                       # number of prefetches that crossed the page
system.cpu.decode.BlockedCycles               1040423                       # Number of cycles decode is blocked
system.cpu.decode.DecodedInsts                6554666                       # Number of instructions handled by decode
system.cpu.decode.IdleCycles                   425939                       # Number of cycles decode is idle
system.cpu.decode.RunCycles                   1643016                       # Number of cycles decode is running
system.cpu.decode.SquashCycles                  24700                       # Number of cycles decode is squashing
system.cpu.decode.UnblockCycles                 93564                       # Number of cycles decode is unblocking
system.cpu.dtb.rdAccesses                      811248                       # TLB accesses on read requests
system.cpu.dtb.rdMisses                          2041                       # TLB misses on read requests
system.cpu.dtb.wrAccesses                      366771                       # TLB accesses on write requests
system.cpu.dtb.wrMisses                           156                       # TLB misses on write requests
system.cpu.fetch.Branches                      656248                       # Number of branches that fetch encountered
system.cpu.fetch.CacheLines                    360565                       # Number of cache lines fetched
system.cpu.fetch.Cycles                       2749699                       # Number of cycles fetch has run and was not squashing or blocked
system.cpu.fetch.IcacheSquashes                  4694                       # Number of outstanding Icache misses that were squashed
system.cpu.fetch.Insts                        3730241                       # Number of instructions fetch has processed
system.cpu.fetch.MiscStallCycles                  143                       # Number of cycles fetch has spent waiting on interrupts, or bad addresses, or out of MSHRs
system.cpu.fetch.PendingQuiesceStallCycles            6                       # Number of stall cycles due to pending quiesce instructions
system.cpu.fetch.PendingTrapStallCycles           775                       # Number of stall cycles due to pending traps
system.cpu.fetch.SquashCycles                   49400                       # Number of cycles fetch has spent squashing
system.cpu.fetch.branchRate                  0.193495                       # Number of branch fetches per cycle
system.cpu.fetch.icacheStallCycles             452319                       # Number of cycles fetch is stalled on an Icache miss
system.cpu.fetch.predictedBranches             331740                       # Number of branches that fetch has predicted taken
system.cpu.fetch.rate                        1.099861                       # Number of inst fetches per cycle
system.cpu.fetch.rateDist::samples            3227642                       # Number of instructions fetched each cycle (Total)
system.cpu.fetch.rateDist::mean              2.117255                       # Number of instructions fetched each cycle (Total)
system.cpu.fetch.rateDist::stdev             1.917703                       # Number of instructions fetched each cycle (Total)
system.cpu.fetch.rateDist::underflows               0      0.00%      0.00% # Number of instructions fetched each cycle (Total)
system.cpu.fetch.rateDist::0                  1368767     42.41%     42.41% # Number of instructions fetched each cycle (Total)
system.cpu.fetch.rateDist::1                   105676      3.27%     45.68% # Number of instructions fetched each cycle (Total)
system.cpu.fetch.rateDist::2                    87479      2.71%     48.39% # Number of instructions fetched each cycle (Total)
system.cpu.fetch.rateDist::3                   109773      3.40%     51.79% # Number of instructions fetched each cycle (Total)
system.cpu.fetch.rateDist::4                  1555947     48.21%    100.00% # Number of instructions fetched each cycle (Total)
system.cpu.fetch.rateDist::overflows                0      0.00%    100.00% # Number of instructions fetched each cycle (Total)
system.cpu.fetch.rateDist::min_value                0                       # Number of instructions fetched each cycle (Total)
system.cpu.fetch.rateDist::max_value                4                       # Number of instructions fetched each cycle (Total)
system.cpu.fetch.rateDist::total              3227642                       # Number of instructions fetched each cycle (Total)
system.cpu.fp_regfile_reads                    296511                       # number of floating regfile reads
system.cpu.fp_regfile_writes                   158453                       # number of floating regfile writes
system.cpu.fuPool.fu_ticks_busy::IntALU(0)    307445200                       # Total ticks fu was busy
system.cpu.fuPool.fu_ticks_busy::IntALU(1)    307445200                       # Total ticks fu was busy
system.cpu.fuPool.fu_ticks_busy::IntALU(2)    307445200                       # Total ticks fu was busy
system.cpu.fuPool.fu_ticks_busy::IntALU(3)    307444800                       # Total ticks fu was busy
system.cpu.fuPool.fu_ticks_busy::IntALU(4)    307444800                       # Total ticks fu was busy
system.cpu.fuPool.fu_ticks_busy::IntALU(5)    307444800                       # Total ticks fu was busy
system.cpu.fuPool.fu_ticks_busy::IntMultDiv(0)      9458000                       # Total ticks fu was busy
system.cpu.fuPool.fu_ticks_busy::IntMultDiv(1)      9457600                       # Total ticks fu was busy
system.cpu.fuPool.fu_ticks_busy::FP_ALU(0)       996400                       # Total ticks fu was busy
system.cpu.fuPool.fu_ticks_busy::FP_ALU(1)       996000                       # Total ticks fu was busy
system.cpu.fuPool.fu_ticks_busy::FP_ALU(2)       996000                       # Total ticks fu was busy
system.cpu.fuPool.fu_ticks_busy::FP_ALU(3)       996000                       # Total ticks fu was busy
system.cpu.fuPool.fu_ticks_busy::FP_MultDiv(0)            0                       # Total ticks fu was busy
system.cpu.fuPool.fu_ticks_busy::FP_MultDiv(1)            0                       # Total ticks fu was busy
system.cpu.fuPool.fu_ticks_busy::SIMD_Unit(0)     11267600                       # Total ticks fu was busy
system.cpu.fuPool.fu_ticks_busy::SIMD_Unit(1)     12057200                       # Total ticks fu was busy
system.cpu.fuPool.fu_ticks_busy::SIMD_Unit(2)     11172000                       # Total ticks fu was busy
system.cpu.fuPool.fu_ticks_busy::SIMD_Unit(3)     11994400                       # Total ticks fu was busy
system.cpu.fuPool.fu_ticks_busy::PredALU(0)            0                       # Total ticks fu was busy
system.cpu.fuPool.fu_ticks_busy::RdWrPort(0)    119278800                       # Total ticks fu was busy
system.cpu.fuPool.fu_ticks_busy::RdWrPort(1)    119016000                       # Total ticks fu was busy
system.cpu.fuPool.fu_ticks_busy::RdWrPort(2)    119000800                       # Total ticks fu was busy
system.cpu.fuPool.fu_ticks_busy::RdWrPort(3)    119070800                       # Total ticks fu was busy
system.cpu.fuPool.fu_ticks_busy::IprPort(0)            0                       # Total ticks fu was busy
system.cpu.fuPool.fu_ticks_busy::total     2390427600                       # Total ticks fu was busy
system.cpu.icache.prefetcher.num_hwpf_issued            0                       # number of hwpf issued
system.cpu.icache.prefetcher.pfBufferHit            0                       # number of redundant prefetches already in prefetch queue
system.cpu.icache.prefetcher.pfIdentified            0                       # number of prefetch candidates identified
system.cpu.icache.prefetcher.pfInCache              0                       # number of redundant prefetches already in cache/mshr dropped
system.cpu.icache.prefetcher.pfRemovedFull            0                       # number of prefetches dropped due to prefetch queue size
system.cpu.icache.prefetcher.pfSpanPage             0                       # number of prefetches that crossed the page
system.cpu.idleCycles                          163914                       # Total number of cycles that the CPU has spent unscheduled due to idling
system.cpu.iew.branchMispredicts                29037                       # Number of branch mispredicts detected at execute
system.cpu.iew.exec_branches                   541632                       # Number of branches executed
system.cpu.iew.exec_nop                             0                       # number of nop insts executed
system.cpu.iew.exec_rate                     1.762173                       # Inst execution rate
system.cpu.iew.exec_refs                      1177851                       # number of memory reference insts executed
system.cpu.iew.exec_stores                     366757                       # Number of stores executed
system.cpu.iew.exec_swp                             0                       # number of swp insts executed
system.cpu.iew.iewBlockCycles                  693963                       # Number of cycles IEW is blocking
system.cpu.iew.iewDispLoadInsts                841744                       # Number of dispatched load instructions
system.cpu.iew.iewDispNonSpecInsts                959                       # Number of dispatched non-speculative instructions
system.cpu.iew.iewDispSquashedInsts               585                       # Number of squashed instructions skipped by dispatch
system.cpu.iew.iewDispStoreInsts               377089                       # Number of dispatched store instructions
system.cpu.iew.iewDispatchedInsts             6335508                       # Number of instructions dispatched to IQ
system.cpu.iew.iewExecLoadInsts                811094                       # Number of load instructions executed
system.cpu.iew.iewExecSquashedInsts             34757                       # Number of squashed instructions skipped in execute
system.cpu.iew.iewExecutedInsts               5976510                       # Number of executed instructions
system.cpu.iew.iewIQFullEvents                   3332                       # Number of times the IQ has become full, causing a stall
system.cpu.iew.iewIdleCycles                        0                       # Number of cycles IEW is idle
system.cpu.iew.iewLSQFullEvents                  9957                       # Number of times the LSQ has become full, causing a stall
system.cpu.iew.iewSquashCycles                  24700                       # Number of cycles IEW is squashing
system.cpu.iew.iewUnblockCycles                 16265                       # Number of cycles IEW is unblocking
system.cpu.iew.lsq.thread0.blockedLoads             0                       # Number of blocked loads due to partial load-store forwarding
system.cpu.iew.lsq.thread0.cacheBlocked           634                       # Number of times an access to memory failed due to the cache being blocked
system.cpu.iew.lsq.thread0.forwLoads            68468                       # Number of loads that had data forwarded from stores
system.cpu.iew.lsq.thread0.ignoredResponses          247                       # Number of memory responses ignored because the instruction is squashed
system.cpu.iew.lsq.thread0.invAddrLoads             0                       # Number of loads ignored due to an invalid address
system.cpu.iew.lsq.thread0.invAddrSwpfs             0                       # Number of software prefetches ignored due to an invalid address
system.cpu.iew.lsq.thread0.memOrderViolation           88                       # Number of memory ordering violations
system.cpu.iew.lsq.thread0.rescheduledLoads           18                       # Number of loads that were rescheduled
system.cpu.iew.lsq.thread0.squashedLoads       116818                       # Number of loads squashed
system.cpu.iew.lsq.thread0.squashedStores        30371                       # Number of stores squashed
system.cpu.iew.memOrderViolationEvents             88                       # Number of memory order violations
system.cpu.iew.predictedNotTakenIncorrect        20962                       # Number of branches that were predicted not taken incorrectly
system.cpu.iew.predictedTakenIncorrect           8075                       # Number of branches that were predicted taken incorrectly
system.cpu.iew.wb_consumers                   8005833                       # num instructions consuming a value
system.cpu.iew.wb_count                       5954315                       # cumulative count of insts written-back
system.cpu.iew.wb_fanout                     0.575475                       # average fanout of values written-back
system.cpu.iew.wb_producers                   4607155                       # num instructions producing a value
system.cpu.iew.wb_rate                       1.755629                       # insts written-back per cycle
system.cpu.iew.wb_sent                        5961310                       # cumulative count of insts sent to commit
system.cpu.int_regfile_reads                  9164162                       # number of integer regfile reads
system.cpu.int_regfile_writes                 4963500                       # number of integer regfile writes
system.cpu.ipc                               0.869743                       # IPC: Instructions Per Cycle
system.cpu.ipc_total                         0.869743                       # IPC: Total IPC of All Threads
system.cpu.iq.FU_type_0::No_OpClass             35198      0.59%      0.59% # Type of FU issued
system.cpu.iq.FU_type_0::IntAlu               4611677     76.72%     77.30% # Type of FU issued
system.cpu.iq.FU_type_0::IntMult                 5848      0.10%     77.40% # Type of FU issued
system.cpu.iq.FU_type_0::IntDiv                 41441      0.69%     78.09% # Type of FU issued
system.cpu.iq.FU_type_0::FloatAdd                8657      0.14%     78.23% # Type of FU issued
system.cpu.iq.FU_type_0::FloatCmp                   0      0.00%     78.23% # Type of FU issued
system.cpu.iq.FU_type_0::FloatCvt                1304      0.02%     78.26% # Type of FU issued
system.cpu.iq.FU_type_0::FloatMult                  0      0.00%     78.26% # Type of FU issued
system.cpu.iq.FU_type_0::FloatMultAcc               0      0.00%     78.26% # Type of FU issued
system.cpu.iq.FU_type_0::FloatDiv                   0      0.00%     78.26% # Type of FU issued
system.cpu.iq.FU_type_0::FloatMisc                  0      0.00%     78.26% # Type of FU issued
system.cpu.iq.FU_type_0::FloatSqrt                  0      0.00%     78.26% # Type of FU issued
system.cpu.iq.FU_type_0::SimdAdd                 7046      0.12%     78.37% # Type of FU issued
system.cpu.iq.FU_type_0::SimdAddAcc                 0      0.00%     78.37% # Type of FU issued
system.cpu.iq.FU_type_0::SimdAlu                31810      0.53%     78.90% # Type of FU issued
system.cpu.iq.FU_type_0::SimdCmp                    0      0.00%     78.90% # Type of FU issued
system.cpu.iq.FU_type_0::SimdCvt                30679      0.51%     79.41% # Type of FU issued
system.cpu.iq.FU_type_0::SimdMisc               44237      0.74%     80.15% # Type of FU issued
system.cpu.iq.FU_type_0::SimdMult                   0      0.00%     80.15% # Type of FU issued
system.cpu.iq.FU_type_0::SimdMultAcc                0      0.00%     80.15% # Type of FU issued
system.cpu.iq.FU_type_0::SimdShift               2456      0.04%     80.19% # Type of FU issued
system.cpu.iq.FU_type_0::SimdShiftAcc               0      0.00%     80.19% # Type of FU issued
system.cpu.iq.FU_type_0::SimdDiv                    0      0.00%     80.19% # Type of FU issued
system.cpu.iq.FU_type_0::SimdSqrt                   0      0.00%     80.19% # Type of FU issued
system.cpu.iq.FU_type_0::SimdFloatAdd               0      0.00%     80.19% # Type of FU issued
system.cpu.iq.FU_type_0::SimdFloatAlu               0      0.00%     80.19% # Type of FU issued
system.cpu.iq.FU_type_0::SimdFloatCmp               0      0.00%     80.19% # Type of FU issued
system.cpu.iq.FU_type_0::SimdFloatCvt               0      0.00%     80.19% # Type of FU issued
system.cpu.iq.FU_type_0::SimdFloatDiv               0      0.00%     80.19% # Type of FU issued
system.cpu.iq.FU_type_0::SimdFloatMisc              0      0.00%     80.19% # Type of FU issued
system.cpu.iq.FU_type_0::SimdFloatMult              0      0.00%     80.19% # Type of FU issued
system.cpu.iq.FU_type_0::SimdFloatMultAcc            0      0.00%     80.19% # Type of FU issued
system.cpu.iq.FU_type_0::SimdFloatSqrt              0      0.00%     80.19% # Type of FU issued
system.cpu.iq.FU_type_0::SimdReduceAdd              0      0.00%     80.19% # Type of FU issued
system.cpu.iq.FU_type_0::SimdReduceAlu              0      0.00%     80.19% # Type of FU issued
system.cpu.iq.FU_type_0::SimdReduceCmp              0      0.00%     80.19% # Type of FU issued
system.cpu.iq.FU_type_0::SimdFloatReduceAdd            0      0.00%     80.19% # Type of FU issued
system.cpu.iq.FU_type_0::SimdFloatReduceCmp            0      0.00%     80.19% # Type of FU issued
system.cpu.iq.FU_type_0::SimdAes                    0      0.00%     80.19% # Type of FU issued
system.cpu.iq.FU_type_0::SimdAesMix                 0      0.00%     80.19% # Type of FU issued
system.cpu.iq.FU_type_0::SimdSha1Hash               0      0.00%     80.19% # Type of FU issued
system.cpu.iq.FU_type_0::SimdSha1Hash2              0      0.00%     80.19% # Type of FU issued
system.cpu.iq.FU_type_0::SimdSha256Hash             0      0.00%     80.19% # Type of FU issued
system.cpu.iq.FU_type_0::SimdSha256Hash2            0      0.00%     80.19% # Type of FU issued
system.cpu.iq.FU_type_0::SimdShaSigma2              0      0.00%     80.19% # Type of FU issued
system.cpu.iq.FU_type_0::SimdShaSigma3              0      0.00%     80.19% # Type of FU issued
system.cpu.iq.FU_type_0::SimdPredAlu                0      0.00%     80.19% # Type of FU issued
system.cpu.iq.FU_type_0::MemRead               783239     13.03%     93.22% # Type of FU issued
system.cpu.iq.FU_type_0::MemWrite              351161      5.84%     99.06% # Type of FU issued
system.cpu.iq.FU_type_0::FloatMemRead           38311      0.64%     99.70% # Type of FU issued
system.cpu.iq.FU_type_0::FloatMemWrite          18207      0.30%    100.00% # Type of FU issued
system.cpu.iq.FU_type_0::IprAccess                  0      0.00%    100.00% # Type of FU issued
system.cpu.iq.FU_type_0::InstPrefetch               0      0.00%    100.00% # Type of FU issued
system.cpu.iq.FU_type_0::total                6011271                       # Type of FU issued
system.cpu.iq.fp_alu_accesses                  196070                       # Number of floating point alu accesses
system.cpu.iq.fp_inst_queue_reads              393607                       # Number of floating instruction queue reads
system.cpu.iq.fp_inst_queue_wakeup_accesses       192323                       # Number of floating instruction queue wakeup accesses
system.cpu.iq.fp_inst_queue_writes             241873                       # Number of floating instruction queue writes
system.cpu.iq.fu_busy_cnt                           0                       # FU busy when requested
system.cpu.iq.fu_busy_rate                          0                       # FU busy rate (busy events/executed inst)
system.cpu.iq.fu_full::No_OpClass                   0                       # attempts to use FU when none available
system.cpu.iq.fu_full::IntAlu                       0                       # attempts to use FU when none available
system.cpu.iq.fu_full::IntMult                      0                       # attempts to use FU when none available
system.cpu.iq.fu_full::IntDiv                       0                       # attempts to use FU when none available
system.cpu.iq.fu_full::FloatAdd                     0                       # attempts to use FU when none available
system.cpu.iq.fu_full::FloatCmp                     0                       # attempts to use FU when none available
system.cpu.iq.fu_full::FloatCvt                     0                       # attempts to use FU when none available
system.cpu.iq.fu_full::FloatMult                    0                       # attempts to use FU when none available
system.cpu.iq.fu_full::FloatMultAcc                 0                       # attempts to use FU when none available
system.cpu.iq.fu_full::FloatDiv                     0                       # attempts to use FU when none available
system.cpu.iq.fu_full::FloatMisc                    0                       # attempts to use FU when none available
system.cpu.iq.fu_full::FloatSqrt                    0                       # attempts to use FU when none available
system.cpu.iq.fu_full::SimdAdd                      0                       # attempts to use FU when none available
system.cpu.iq.fu_full::SimdAddAcc                   0                       # attempts to use FU when none available
system.cpu.iq.fu_full::SimdAlu                      0                       # attempts to use FU when none available
system.cpu.iq.fu_full::SimdCmp                      0                       # attempts to use FU when none available
system.cpu.iq.fu_full::SimdCvt                      0                       # attempts to use FU when none available
system.cpu.iq.fu_full::SimdMisc                     0                       # attempts to use FU when none available
system.cpu.iq.fu_full::SimdMult                     0                       # attempts to use FU when none available
system.cpu.iq.fu_full::SimdMultAcc                  0                       # attempts to use FU when none available
system.cpu.iq.fu_full::SimdShift                    0                       # attempts to use FU when none available
system.cpu.iq.fu_full::SimdShiftAcc                 0                       # attempts to use FU when none available
system.cpu.iq.fu_full::SimdDiv                      0                       # attempts to use FU when none available
system.cpu.iq.fu_full::SimdSqrt                     0                       # attempts to use FU when none available
system.cpu.iq.fu_full::SimdFloatAdd                 0                       # attempts to use FU when none available
system.cpu.iq.fu_full::SimdFloatAlu                 0                       # attempts to use FU when none available
system.cpu.iq.fu_full::SimdFloatCmp                 0                       # attempts to use FU when none available
system.cpu.iq.fu_full::SimdFloatCvt                 0                       # attempts to use FU when none available
system.cpu.iq.fu_full::SimdFloatDiv                 0                       # attempts to use FU when none available
system.cpu.iq.fu_full::SimdFloatMisc                0                       # attempts to use FU when none available
system.cpu.iq.fu_full::SimdFloatMult                0                       # attempts to use FU when none available
system.cpu.iq.fu_full::SimdFloatMultAcc             0                       # attempts to use FU when none available
system.cpu.iq.fu_full::SimdFloatSqrt                0                       # attempts to use FU when none available
system.cpu.iq.fu_full::SimdReduceAdd                0                       # attempts to use FU when none available
system.cpu.iq.fu_full::SimdReduceAlu                0                       # attempts to use FU when none available
system.cpu.iq.fu_full::SimdReduceCmp                0                       # attempts to use FU when none available
system.cpu.iq.fu_full::SimdFloatReduceAdd            0                       # attempts to use FU when none available
system.cpu.iq.fu_full::SimdFloatReduceCmp            0                       # attempts to use FU when none available
system.cpu.iq.fu_full::SimdAes                      0                       # attempts to use FU when none available
system.cpu.iq.fu_full::SimdAesMix                   0                       # attempts to use FU when none available
system.cpu.iq.fu_full::SimdSha1Hash                 0                       # attempts to use FU when none available
system.cpu.iq.fu_full::SimdSha1Hash2                0                       # attempts to use FU when none available
system.cpu.iq.fu_full::SimdSha256Hash               0                       # attempts to use FU when none available
system.cpu.iq.fu_full::SimdSha256Hash2              0                       # attempts to use FU when none available
system.cpu.iq.fu_full::SimdShaSigma2                0                       # attempts to use FU when none available
system.cpu.iq.fu_full::SimdShaSigma3                0                       # attempts to use FU when none available
system.cpu.iq.fu_full::SimdPredAlu                  0                       # attempts to use FU when none available
system.cpu.iq.fu_full::MemRead                      0                       # attempts to use FU when none available
system.cpu.iq.fu_full::MemWrite                     0                       # attempts to use FU when none available
system.cpu.iq.fu_full::FloatMemRead                 0                       # attempts to use FU when none available
system.cpu.iq.fu_full::FloatMemWrite                0                       # attempts to use FU when none available
system.cpu.iq.fu_full::IprAccess                    0                       # attempts to use FU when none available
system.cpu.iq.fu_full::InstPrefetch                 0                       # attempts to use FU when none available
system.cpu.iq.int_alu_accesses                5780003                       # Number of integer alu accesses
system.cpu.iq.int_inst_queue_reads           14875109                       # Number of integer instruction queue reads
system.cpu.iq.int_inst_queue_wakeup_accesses      5761992                       # Number of integer instruction queue wakeup accesses
system.cpu.iq.int_inst_queue_writes           6998303                       # Number of integer instruction queue writes
system.cpu.iq.iqInstsAdded                    6334357                       # Number of instructions added to the IQ (excludes non-spec)
system.cpu.iq.iqInstsIssued                   6011271                       # Number of instructions issued
system.cpu.iq.iqNonSpecInstsAdded                1151                       # Number of non-speculative instructions added to the IQ
system.cpu.iq.iqSquashedInstsExamined          904581                       # Number of squashed instructions iterated over during squash; mainly for profiling
system.cpu.iq.iqSquashedInstsIssued             18536                       # Number of squashed instructions issued
system.cpu.iq.iqSquashedNonSpecRemoved            391                       # Number of squashed non-spec instructions that were removed
system.cpu.iq.iqSquashedOperandsExamined      1335377                       # Number of squashed operands that are examined and possibly removed from graph
system.cpu.iq.issued_per_cycle::samples       3227642                       # Number of insts issued each cycle
system.cpu.iq.issued_per_cycle::mean         1.862434                       # Number of insts issued each cycle
system.cpu.iq.issued_per_cycle::stdev        1.658209                       # Number of insts issued each cycle
system.cpu.iq.issued_per_cycle::underflows            0      0.00%      0.00% # Number of insts issued each cycle
system.cpu.iq.issued_per_cycle::0             1202048     37.24%     37.24% # Number of insts issued each cycle
system.cpu.iq.issued_per_cycle::1              237572      7.36%     44.60% # Number of insts issued each cycle
system.cpu.iq.issued_per_cycle::2              436653     13.53%     58.13% # Number of insts issued each cycle
system.cpu.iq.issued_per_cycle::3              505083     15.65%     73.78% # Number of insts issued each cycle
system.cpu.iq.issued_per_cycle::4              846286     26.22%    100.00% # Number of insts issued each cycle
system.cpu.iq.issued_per_cycle::overflows            0      0.00%    100.00% # Number of insts issued each cycle
system.cpu.iq.issued_per_cycle::min_value            0                       # Number of insts issued each cycle
system.cpu.iq.issued_per_cycle::max_value            4                       # Number of insts issued each cycle
system.cpu.iq.issued_per_cycle::total         3227642                       # Number of insts issued each cycle
system.cpu.iq.rate                           1.772423                       # Inst issue rate
system.cpu.iq.vec_alu_accesses                      0                       # Number of vector alu accesses
system.cpu.iq.vec_inst_queue_reads                  0                       # Number of vector instruction queue reads
system.cpu.iq.vec_inst_queue_wakeup_accesses            0                       # Number of vector instruction queue wakeup accesses
system.cpu.iq.vec_inst_queue_writes                 0                       # Number of vector instruction queue writes
system.cpu.itb.rdAccesses                           0                       # TLB accesses on read requests
system.cpu.itb.rdMisses                             0                       # TLB misses on read requests
system.cpu.itb.wrAccesses                      360701                       # TLB accesses on write requests
system.cpu.itb.wrMisses                           386                       # TLB misses on write requests
system.cpu.memDep0.conflictingLoads             19346                       # Number of conflicting loads.
system.cpu.memDep0.conflictingStores            12332                       # Number of conflicting stores.
system.cpu.memDep0.insertedLoads               841744                       # Number of loads inserted to the mem dependence unit.
system.cpu.memDep0.insertedStores              377089                       # Number of stores inserted to the mem dependence unit.
system.cpu.misc_regfile_reads                 2311569                       # number of misc regfile reads
system.cpu.misc_regfile_writes                    702                       # number of misc regfile writes
system.cpu.numCycles                          3391556                       # number of cpu cycles simulated
system.cpu.numWorkItemsCompleted                    0                       # number of work items this cpu completed
system.cpu.numWorkItemsStarted                      0                       # number of work items this cpu started
system.cpu.process.numSyscalls                     57                       # Number of system calls
system.cpu.rename.BlockCycles                  843530                       # Number of cycles rename is blocking
system.cpu.rename.CommittedMaps               6944502                       # Number of HB maps that are committed
system.cpu.rename.FullRegisterEvents              168                       # Number of times there has been no free registers
system.cpu.rename.IQFullEvents                  52736                       # Number of times rename has blocked due to IQ full
system.cpu.rename.IdleCycles                   478945                       # Number of cycles rename is idle
system.cpu.rename.LQFullEvents                  16464                       # Number of times rename has blocked due to LQ full
system.cpu.rename.ROBFullEvents                  4252                       # Number of times rename has blocked due to ROB full
system.cpu.rename.RenameLookups              16795550                       # Number of register rename lookups that rename has made
system.cpu.rename.RenamedInsts                6478929                       # Number of instructions processed by rename
system.cpu.rename.RenamedOperands             8365178                       # Number of destination operands rename has renamed
system.cpu.rename.RunCycles                   1674678                       # Number of cycles rename is running
system.cpu.rename.SQFullEvents                  77772                       # Number of times rename has blocked due to SQ full
system.cpu.rename.SquashCycles                  24700                       # Number of cycles rename is squashing
system.cpu.rename.UnblockCycles                185486                       # Number of cycles rename is unblocking
system.cpu.rename.UndoneMaps                  1420650                       # Number of HB maps that are undone due to squashing
system.cpu.rename.fp_rename_lookups            335321                       # Number of floating rename lookups
system.cpu.rename.int_rename_lookups         10119405                       # Number of integer rename lookups
system.cpu.rename.serializeStallCycles          20303                       # count of cycles rename stalled for serializing inst
system.cpu.rename.serializingInsts                897                       # count of serializing insts renamed
system.cpu.rename.skidInsts                    222083                       # count of insts added to the skid buffer
system.cpu.rename.tempSerializingInsts            951                       # count of temporary serializing insts renamed
system.cpu.rob.rob_reads                      8398247                       # The number of ROB reads
system.cpu.rob.rob_writes                    12918560                       # The number of ROB writes
system.cpu.timesIdled                            1645                       # Number of times that the entire CPU went into an idle state and unscheduled itself
system.l2bus.snoop_filter.hit_multi_requests           12                       # Number of requests hitting in the snoop filter with multiple (>1) holders of the requested data.
system.l2bus.snoop_filter.hit_multi_snoops            1                       # Number of snoops hitting in the snoop filter with multiple (>1) holders of the requested data.
system.l2bus.snoop_filter.hit_single_requests        18656                       # Number of requests hitting in the snoop filter with a single holder of the requested data.
system.l2bus.snoop_filter.hit_single_snoops          447                       # Number of snoops hitting in the snoop filter with a single holder of the requested data.
system.l2bus.snoop_filter.tot_requests          38590                       # Total number of requests made to the snoop filter.
system.l2bus.snoop_filter.tot_snoops              448                       # Total number of snoops made to the snoop filter.
system.l2cache.prefetcher.num_hwpf_issued          743                       # number of hwpf issued
system.l2cache.prefetcher.pfBufferHit               0                       # number of redundant prefetches already in prefetch queue
system.l2cache.prefetcher.pfIdentified            743                       # number of prefetch candidates identified
system.l2cache.prefetcher.pfInCache                 0                       # number of redundant prefetches already in cache/mshr dropped
system.l2cache.prefetcher.pfRemovedFull             0                       # number of prefetches dropped due to prefetch queue size
system.l2cache.prefetcher.pfSpanPage              133                       # number of prefetches that crossed the page
system.membus.snoop_filter.hit_multi_requests            0                       # Number of requests hitting in the snoop filter with multiple (>1) holders of the requested data.
system.membus.snoop_filter.hit_multi_snoops            0                       # Number of snoops hitting in the snoop filter with multiple (>1) holders of the requested data.
system.membus.snoop_filter.hit_single_requests         9563                       # Number of requests hitting in the snoop filter with a single holder of the requested data.
system.membus.snoop_filter.hit_single_snoops            0                       # Number of snoops hitting in the snoop filter with a single holder of the requested data.
system.membus.snoop_filter.tot_requests         23242                       # Total number of requests made to the snoop filter.
system.membus.snoop_filter.tot_snoops               0                       # Total number of snoops made to the snoop filter.
system.membus.pwrStateResidencyTicks::UNDEFINED   1356622000                       # Cumulative time (in ticks) in various power states
system.membus.trans_dist::ReadResp              12270                       # Transaction distribution
system.membus.trans_dist::WritebackDirty         1355                       # Transaction distribution
system.membus.trans_dist::CleanEvict             8208                       # Transaction distribution
system.membus.trans_dist::ReadExReq              1409                       # Transaction distribution
system.membus.trans_dist::ReadExResp             1409                       # Transaction distribution
system.membus.trans_dist::ReadSharedReq         12270                       # Transaction distribution
system.membus.pkt_count_system.l2cache.mem_side::system.mem_ctrl.port        36921                       # Packet count per connected master and slave (bytes)
system.membus.pkt_count_system.l2cache.mem_side::total        36921                       # Packet count per connected master and slave (bytes)
system.membus.pkt_count::total                  36921                       # Packet count per connected master and slave (bytes)
system.membus.pkt_size_system.l2cache.mem_side::system.mem_ctrl.port       962176                       # Cumulative packet size per connected master and slave (bytes)
system.membus.pkt_size_system.l2cache.mem_side::total       962176                       # Cumulative packet size per connected master and slave (bytes)
system.membus.pkt_size::total                  962176                       # Cumulative packet size per connected master and slave (bytes)
system.membus.snoops                                0                       # Total snoops (count)
system.membus.snoopTraffic                          0                       # Total snoop traffic (bytes)
system.membus.snoop_fanout::samples             13679                       # Request fanout histogram
system.membus.snoop_fanout::mean                    0                       # Request fanout histogram
system.membus.snoop_fanout::stdev                   0                       # Request fanout histogram
system.membus.snoop_fanout::underflows              0      0.00%      0.00% # Request fanout histogram
system.membus.snoop_fanout::0                   13679    100.00%    100.00% # Request fanout histogram
system.membus.snoop_fanout::1                       0      0.00%    100.00% # Request fanout histogram
system.membus.snoop_fanout::overflows               0      0.00%    100.00% # Request fanout histogram
system.membus.snoop_fanout::min_value               0                       # Request fanout histogram
system.membus.snoop_fanout::max_value               0                       # Request fanout histogram
system.membus.snoop_fanout::total               13679                       # Request fanout histogram
system.membus.reqLayer2.occupancy            11495776                       # Layer occupancy (ticks)
system.membus.reqLayer2.utilization               0.8                       # Layer utilization (%)
system.membus.respLayer0.occupancy           29690524                       # Layer occupancy (ticks)
system.membus.respLayer0.utilization              2.2                       # Layer utilization (%)
system.l2bus.pwrStateResidencyTicks::UNDEFINED   1356622000                       # Cumulative time (in ticks) in various power states
system.l2bus.trans_dist::ReadResp               17763                       # Transaction distribution
system.l2bus.trans_dist::WritebackDirty          4179                       # Transaction distribution
system.l2bus.trans_dist::CleanEvict             24126                       # Transaction distribution
system.l2bus.trans_dist::HardPFReq               1032                       # Transaction distribution
system.l2bus.trans_dist::ReadExReq               2172                       # Transaction distribution
system.l2bus.trans_dist::ReadExResp              2172                       # Transaction distribution
system.l2bus.trans_dist::ReadSharedReq          17763                       # Transaction distribution
system.l2bus.pkt_count_system.cpu.icache.mem_side::system.l2cache.cpu_side         8498                       # Packet count per connected master and slave (bytes)
system.l2bus.pkt_count_system.cpu.dcache.mem_side::system.l2cache.cpu_side        50024                       # Packet count per connected master and slave (bytes)
system.l2bus.pkt_count::total                   58522                       # Packet count per connected master and slave (bytes)
system.l2bus.pkt_size_system.cpu.icache.mem_side::system.l2cache.cpu_side       186624                       # Cumulative packet size per connected master and slave (bytes)
system.l2bus.pkt_size_system.cpu.dcache.mem_side::system.l2cache.cpu_side      1269760                       # Cumulative packet size per connected master and slave (bytes)
system.l2bus.pkt_size::total                  1456384                       # Cumulative packet size per connected master and slave (bytes)
system.l2bus.snoops                             10685                       # Total snoops (count)
system.l2bus.snoopTraffic                       86912                       # Total snoop traffic (bytes)
system.l2bus.snoop_fanout::samples              30617                       # Request fanout histogram
system.l2bus.snoop_fanout::mean              0.015090                       # Request fanout histogram
system.l2bus.snoop_fanout::stdev             0.122179                       # Request fanout histogram
system.l2bus.snoop_fanout::underflows               0      0.00%      0.00% # Request fanout histogram
system.l2bus.snoop_fanout::0                    30156     98.49%     98.49% # Request fanout histogram
system.l2bus.snoop_fanout::1                      460      1.50%    100.00% # Request fanout histogram
system.l2bus.snoop_fanout::2                        1      0.00%    100.00% # Request fanout histogram
system.l2bus.snoop_fanout::overflows                0      0.00%    100.00% # Request fanout histogram
system.l2bus.snoop_fanout::min_value                0                       # Request fanout histogram
system.l2bus.snoop_fanout::max_value                2                       # Request fanout histogram
system.l2bus.snoop_fanout::total                30617                       # Request fanout histogram
system.l2bus.respLayer1.occupancy            20420397                       # Layer occupancy (ticks)
system.l2bus.respLayer1.utilization               1.5                       # Layer utilization (%)
system.l2bus.reqLayer0.occupancy             19111503                       # Layer occupancy (ticks)
system.l2bus.reqLayer0.utilization                1.4                       # Layer utilization (%)
system.l2bus.respLayer0.occupancy             3503997                       # Layer occupancy (ticks)
system.l2bus.respLayer0.utilization               0.3                       # Layer utilization (%)
system.clk_domain.clock                           400                       # Clock period in ticks
system.clk_domain.voltage_domain.voltage            1                       # Voltage in Volts
system.cpu.pwrStateResidencyTicks::ON      1356622000                       # Cumulative time (in ticks) in various power states
system.cpu.icache.pwrStateResidencyTicks::UNDEFINED   1356622000                       # Cumulative time (in ticks) in various power states
system.cpu.icache.demand_hits::.cpu.inst       356936                       # number of demand (read+write) hits
system.cpu.icache.demand_hits::total           356936                       # number of demand (read+write) hits
system.cpu.icache.overall_hits::.cpu.inst       356936                       # number of overall hits
system.cpu.icache.overall_hits::total          356936                       # number of overall hits
system.cpu.icache.demand_misses::.cpu.inst         3628                       # number of demand (read+write) misses
system.cpu.icache.demand_misses::total           3628                       # number of demand (read+write) misses
system.cpu.icache.overall_misses::.cpu.inst         3628                       # number of overall misses
system.cpu.icache.overall_misses::total          3628                       # number of overall misses
system.cpu.icache.demand_miss_latency::.cpu.inst    179613200                       # number of demand (read+write) miss cycles
system.cpu.icache.demand_miss_latency::total    179613200                       # number of demand (read+write) miss cycles
system.cpu.icache.overall_miss_latency::.cpu.inst    179613200                       # number of overall miss cycles
system.cpu.icache.overall_miss_latency::total    179613200                       # number of overall miss cycles
system.cpu.icache.demand_accesses::.cpu.inst       360564                       # number of demand (read+write) accesses
system.cpu.icache.demand_accesses::total       360564                       # number of demand (read+write) accesses
system.cpu.icache.overall_accesses::.cpu.inst       360564                       # number of overall (read+write) accesses
system.cpu.icache.overall_accesses::total       360564                       # number of overall (read+write) accesses
system.cpu.icache.demand_miss_rate::.cpu.inst     0.010062                       # miss rate for demand accesses
system.cpu.icache.demand_miss_rate::total     0.010062                       # miss rate for demand accesses
system.cpu.icache.overall_miss_rate::.cpu.inst     0.010062                       # miss rate for overall accesses
system.cpu.icache.overall_miss_rate::total     0.010062                       # miss rate for overall accesses
system.cpu.icache.demand_avg_miss_latency::.cpu.inst 49507.497244                       # average overall miss latency
system.cpu.icache.demand_avg_miss_latency::total 49507.497244                       # average overall miss latency
system.cpu.icache.overall_avg_miss_latency::.cpu.inst 49507.497244                       # average overall miss latency
system.cpu.icache.overall_avg_miss_latency::total 49507.497244                       # average overall miss latency
system.cpu.icache.blocked_cycles::no_mshrs           39                       # number of cycles access was blocked
system.cpu.icache.blocked_cycles::no_targets            0                       # number of cycles access was blocked
system.cpu.icache.blocked::no_mshrs                 2                       # number of cycles access was blocked
system.cpu.icache.blocked::no_targets               0                       # number of cycles access was blocked
system.cpu.icache.avg_blocked_cycles::no_mshrs    19.500000                       # average number of cycles each access was blocked
system.cpu.icache.avg_blocked_cycles::no_targets          nan                       # average number of cycles each access was blocked
system.cpu.icache.demand_mshr_hits::.cpu.inst          709                       # number of demand (read+write) MSHR hits
system.cpu.icache.demand_mshr_hits::total          709                       # number of demand (read+write) MSHR hits
system.cpu.icache.overall_mshr_hits::.cpu.inst          709                       # number of overall MSHR hits
system.cpu.icache.overall_mshr_hits::total          709                       # number of overall MSHR hits
system.cpu.icache.demand_mshr_misses::.cpu.inst         2919                       # number of demand (read+write) MSHR misses
system.cpu.icache.demand_mshr_misses::total         2919                       # number of demand (read+write) MSHR misses
system.cpu.icache.overall_mshr_misses::.cpu.inst         2919                       # number of overall MSHR misses
system.cpu.icache.overall_mshr_misses::total         2919                       # number of overall MSHR misses
system.cpu.icache.demand_mshr_miss_latency::.cpu.inst    145355200                       # number of demand (read+write) MSHR miss cycles
system.cpu.icache.demand_mshr_miss_latency::total    145355200                       # number of demand (read+write) MSHR miss cycles
system.cpu.icache.overall_mshr_miss_latency::.cpu.inst    145355200                       # number of overall MSHR miss cycles
system.cpu.icache.overall_mshr_miss_latency::total    145355200                       # number of overall MSHR miss cycles
system.cpu.icache.demand_mshr_miss_rate::.cpu.inst     0.008096                       # mshr miss rate for demand accesses
system.cpu.icache.demand_mshr_miss_rate::total     0.008096                       # mshr miss rate for demand accesses
system.cpu.icache.overall_mshr_miss_rate::.cpu.inst     0.008096                       # mshr miss rate for overall accesses
system.cpu.icache.overall_mshr_miss_rate::total     0.008096                       # mshr miss rate for overall accesses
system.cpu.icache.demand_avg_mshr_miss_latency::.cpu.inst 49796.231586                       # average overall mshr miss latency
system.cpu.icache.demand_avg_mshr_miss_latency::total 49796.231586                       # average overall mshr miss latency
system.cpu.icache.overall_avg_mshr_miss_latency::.cpu.inst 49796.231586                       # average overall mshr miss latency
system.cpu.icache.overall_avg_mshr_miss_latency::total 49796.231586                       # average overall mshr miss latency
system.cpu.icache.replacements                   2663                       # number of replacements
system.cpu.icache.ReadReq_hits::.cpu.inst       356936                       # number of ReadReq hits
system.cpu.icache.ReadReq_hits::total          356936                       # number of ReadReq hits
system.cpu.icache.ReadReq_misses::.cpu.inst         3628                       # number of ReadReq misses
system.cpu.icache.ReadReq_misses::total          3628                       # number of ReadReq misses
system.cpu.icache.ReadReq_miss_latency::.cpu.inst    179613200                       # number of ReadReq miss cycles
system.cpu.icache.ReadReq_miss_latency::total    179613200                       # number of ReadReq miss cycles
system.cpu.icache.ReadReq_accesses::.cpu.inst       360564                       # number of ReadReq accesses(hits+misses)
system.cpu.icache.ReadReq_accesses::total       360564                       # number of ReadReq accesses(hits+misses)
system.cpu.icache.ReadReq_miss_rate::.cpu.inst     0.010062                       # miss rate for ReadReq accesses
system.cpu.icache.ReadReq_miss_rate::total     0.010062                       # miss rate for ReadReq accesses
system.cpu.icache.ReadReq_avg_miss_latency::.cpu.inst 49507.497244                       # average ReadReq miss latency
system.cpu.icache.ReadReq_avg_miss_latency::total 49507.497244                       # average ReadReq miss latency
system.cpu.icache.ReadReq_mshr_hits::.cpu.inst          709                       # number of ReadReq MSHR hits
system.cpu.icache.ReadReq_mshr_hits::total          709                       # number of ReadReq MSHR hits
system.cpu.icache.ReadReq_mshr_misses::.cpu.inst         2919                       # number of ReadReq MSHR misses
system.cpu.icache.ReadReq_mshr_misses::total         2919                       # number of ReadReq MSHR misses
system.cpu.icache.ReadReq_mshr_miss_latency::.cpu.inst    145355200                       # number of ReadReq MSHR miss cycles
system.cpu.icache.ReadReq_mshr_miss_latency::total    145355200                       # number of ReadReq MSHR miss cycles
system.cpu.icache.ReadReq_mshr_miss_rate::.cpu.inst     0.008096                       # mshr miss rate for ReadReq accesses
system.cpu.icache.ReadReq_mshr_miss_rate::total     0.008096                       # mshr miss rate for ReadReq accesses
system.cpu.icache.ReadReq_avg_mshr_miss_latency::.cpu.inst 49796.231586                       # average ReadReq mshr miss latency
system.cpu.icache.ReadReq_avg_mshr_miss_latency::total 49796.231586                       # average ReadReq mshr miss latency
system.cpu.icache.prefetcher.pwrStateResidencyTicks::UNDEFINED   1356622000                       # Cumulative time (in ticks) in various power states
system.cpu.icache.tags.pwrStateResidencyTicks::UNDEFINED   1356622000                       # Cumulative time (in ticks) in various power states
system.cpu.icache.tags.tagsinuse           253.960945                       # Cycle average of tags in use
system.cpu.icache.tags.total_refs              311092                       # Total number of references to valid blocks.
system.cpu.icache.tags.sampled_refs              2663                       # Sample count of references to valid blocks.
system.cpu.icache.tags.avg_refs            116.820128                       # Average number of references to valid blocks.
system.cpu.icache.tags.warmup_cycle             66400                       # Cycle when the warmup percentage was hit.
system.cpu.icache.tags.occ_blocks::.cpu.inst   253.960945                       # Average occupied blocks per requestor
system.cpu.icache.tags.occ_percent::.cpu.inst     0.992035                       # Average percentage of cache occupancy
system.cpu.icache.tags.occ_percent::total     0.992035                       # Average percentage of cache occupancy
system.cpu.icache.tags.occ_task_id_blocks::1024          256                       # Occupied blocks per task id
system.cpu.icache.tags.age_task_id_blocks_1024::0           61                       # Occupied blocks per task id
system.cpu.icache.tags.age_task_id_blocks_1024::1           47                       # Occupied blocks per task id
system.cpu.icache.tags.age_task_id_blocks_1024::2          147                       # Occupied blocks per task id
system.cpu.icache.tags.age_task_id_blocks_1024::3            1                       # Occupied blocks per task id
system.cpu.icache.tags.occ_task_id_percent::1024            1                       # Percentage of cache occupancy per task id
system.cpu.icache.tags.tag_accesses            724047                       # Number of tag accesses
system.cpu.icache.tags.data_accesses           724047                       # Number of data accesses
system.cpu.dtb.walker.pwrStateResidencyTicks::UNDEFINED   1356622000                       # Cumulative time (in ticks) in various power states
system.cpu.interrupts.clk_domain.clock           6400                       # Clock period in ticks
system.cpu.itb.walker.pwrStateResidencyTicks::UNDEFINED   1356622000                       # Cumulative time (in ticks) in various power states
system.cpu.dcache.pwrStateResidencyTicks::UNDEFINED   1356622000                       # Cumulative time (in ticks) in various power states
system.cpu.dcache.demand_hits::.cpu.data      1053508                       # number of demand (read+write) hits
system.cpu.dcache.demand_hits::total          1053508                       # number of demand (read+write) hits
system.cpu.dcache.overall_hits::.cpu.data      1053508                       # number of overall hits
system.cpu.dcache.overall_hits::total         1053508                       # number of overall hits
system.cpu.dcache.demand_misses::.cpu.data        34836                       # number of demand (read+write) misses
system.cpu.dcache.demand_misses::total          34836                       # number of demand (read+write) misses
system.cpu.dcache.overall_misses::.cpu.data        34836                       # number of overall misses
system.cpu.dcache.overall_misses::total         34836                       # number of overall misses
system.cpu.dcache.demand_miss_latency::.cpu.data   1684403599                       # number of demand (read+write) miss cycles
system.cpu.dcache.demand_miss_latency::total   1684403599                       # number of demand (read+write) miss cycles
system.cpu.dcache.overall_miss_latency::.cpu.data   1684403599                       # number of overall miss cycles
system.cpu.dcache.overall_miss_latency::total   1684403599                       # number of overall miss cycles
system.cpu.dcache.demand_accesses::.cpu.data      1088344                       # number of demand (read+write) accesses
system.cpu.dcache.demand_accesses::total      1088344                       # number of demand (read+write) accesses
system.cpu.dcache.overall_accesses::.cpu.data      1088344                       # number of overall (read+write) accesses
system.cpu.dcache.overall_accesses::total      1088344                       # number of overall (read+write) accesses
system.cpu.dcache.demand_miss_rate::.cpu.data     0.032008                       # miss rate for demand accesses
system.cpu.dcache.demand_miss_rate::total     0.032008                       # miss rate for demand accesses
system.cpu.dcache.overall_miss_rate::.cpu.data     0.032008                       # miss rate for overall accesses
system.cpu.dcache.overall_miss_rate::total     0.032008                       # miss rate for overall accesses
system.cpu.dcache.demand_avg_miss_latency::.cpu.data 48352.382564                       # average overall miss latency
system.cpu.dcache.demand_avg_miss_latency::total 48352.382564                       # average overall miss latency
system.cpu.dcache.overall_avg_miss_latency::.cpu.data 48352.382564                       # average overall miss latency
system.cpu.dcache.overall_avg_miss_latency::total 48352.382564                       # average overall miss latency
system.cpu.dcache.blocked_cycles::no_mshrs        29566                       # number of cycles access was blocked
system.cpu.dcache.blocked_cycles::no_targets          138                       # number of cycles access was blocked
system.cpu.dcache.blocked::no_mshrs               789                       # number of cycles access was blocked
system.cpu.dcache.blocked::no_targets               1                       # number of cycles access was blocked
system.cpu.dcache.avg_blocked_cycles::no_mshrs    37.472750                       # average number of cycles each access was blocked
system.cpu.dcache.avg_blocked_cycles::no_targets          138                       # average number of cycles each access was blocked
system.cpu.dcache.unused_prefetches              1744                       # number of HardPF blocks evicted w/o reference
system.cpu.dcache.writebacks::.writebacks         2824                       # number of writebacks
system.cpu.dcache.writebacks::total              2824                       # number of writebacks
system.cpu.dcache.demand_mshr_hits::.cpu.data        22153                       # number of demand (read+write) MSHR hits
system.cpu.dcache.demand_mshr_hits::total        22153                       # number of demand (read+write) MSHR hits
system.cpu.dcache.overall_mshr_hits::.cpu.data        22153                       # number of overall MSHR hits
system.cpu.dcache.overall_mshr_hits::total        22153                       # number of overall MSHR hits
system.cpu.dcache.demand_mshr_misses::.cpu.data        12683                       # number of demand (read+write) MSHR misses
system.cpu.dcache.demand_mshr_misses::total        12683                       # number of demand (read+write) MSHR misses
system.cpu.dcache.overall_mshr_misses::.cpu.data        12683                       # number of overall MSHR misses
system.cpu.dcache.overall_mshr_misses::.cpu.dcache.prefetcher         4333                       # number of overall MSHR misses
system.cpu.dcache.overall_mshr_misses::total        17016                       # number of overall MSHR misses
system.cpu.dcache.demand_mshr_miss_latency::.cpu.data    580543199                       # number of demand (read+write) MSHR miss cycles
system.cpu.dcache.demand_mshr_miss_latency::total    580543199                       # number of demand (read+write) MSHR miss cycles
system.cpu.dcache.overall_mshr_miss_latency::.cpu.data    580543199                       # number of overall MSHR miss cycles
system.cpu.dcache.overall_mshr_miss_latency::.cpu.dcache.prefetcher    249478971                       # number of overall MSHR miss cycles
system.cpu.dcache.overall_mshr_miss_latency::total    830022170                       # number of overall MSHR miss cycles
system.cpu.dcache.demand_mshr_miss_rate::.cpu.data     0.011653                       # mshr miss rate for demand accesses
system.cpu.dcache.demand_mshr_miss_rate::total     0.011653                       # mshr miss rate for demand accesses
system.cpu.dcache.overall_mshr_miss_rate::.cpu.data     0.011653                       # mshr miss rate for overall accesses
system.cpu.dcache.overall_mshr_miss_rate::.cpu.dcache.prefetcher          inf                       # mshr miss rate for overall accesses
system.cpu.dcache.overall_mshr_miss_rate::total     0.015635                       # mshr miss rate for overall accesses
system.cpu.dcache.demand_avg_mshr_miss_latency::.cpu.data 45773.334306                       # average overall mshr miss latency
system.cpu.dcache.demand_avg_mshr_miss_latency::total 45773.334306                       # average overall mshr miss latency
system.cpu.dcache.overall_avg_mshr_miss_latency::.cpu.data 45773.334306                       # average overall mshr miss latency
system.cpu.dcache.overall_avg_mshr_miss_latency::.cpu.dcache.prefetcher 57576.499192                       # average overall mshr miss latency
system.cpu.dcache.overall_avg_mshr_miss_latency::total 48778.923954                       # average overall mshr miss latency
system.cpu.dcache.replacements                  15992                       # number of replacements
system.cpu.dcache.ReadReq_hits::.cpu.data       708997                       # number of ReadReq hits
system.cpu.dcache.ReadReq_hits::total          708997                       # number of ReadReq hits
system.cpu.dcache.ReadReq_misses::.cpu.data        32622                       # number of ReadReq misses
system.cpu.dcache.ReadReq_misses::total         32622                       # number of ReadReq misses
system.cpu.dcache.ReadReq_miss_latency::.cpu.data   1574407600                       # number of ReadReq miss cycles
system.cpu.dcache.ReadReq_miss_latency::total   1574407600                       # number of ReadReq miss cycles
system.cpu.dcache.ReadReq_accesses::.cpu.data       741619                       # number of ReadReq accesses(hits+misses)
system.cpu.dcache.ReadReq_accesses::total       741619                       # number of ReadReq accesses(hits+misses)
system.cpu.dcache.ReadReq_miss_rate::.cpu.data     0.043988                       # miss rate for ReadReq accesses
system.cpu.dcache.ReadReq_miss_rate::total     0.043988                       # miss rate for ReadReq accesses
system.cpu.dcache.ReadReq_avg_miss_latency::.cpu.data 48262.142113                       # average ReadReq miss latency
system.cpu.dcache.ReadReq_avg_miss_latency::total 48262.142113                       # average ReadReq miss latency
system.cpu.dcache.ReadReq_mshr_hits::.cpu.data        22109                       # number of ReadReq MSHR hits
system.cpu.dcache.ReadReq_mshr_hits::total        22109                       # number of ReadReq MSHR hits
system.cpu.dcache.ReadReq_mshr_misses::.cpu.data        10513                       # number of ReadReq MSHR misses
system.cpu.dcache.ReadReq_mshr_misses::total        10513                       # number of ReadReq MSHR misses
system.cpu.dcache.ReadReq_mshr_miss_latency::.cpu.data    473952000                       # number of ReadReq MSHR miss cycles
system.cpu.dcache.ReadReq_mshr_miss_latency::total    473952000                       # number of ReadReq MSHR miss cycles
system.cpu.dcache.ReadReq_mshr_miss_rate::.cpu.data     0.014176                       # mshr miss rate for ReadReq accesses
system.cpu.dcache.ReadReq_mshr_miss_rate::total     0.014176                       # mshr miss rate for ReadReq accesses
system.cpu.dcache.ReadReq_avg_mshr_miss_latency::.cpu.data 45082.469324                       # average ReadReq mshr miss latency
system.cpu.dcache.ReadReq_avg_mshr_miss_latency::total 45082.469324                       # average ReadReq mshr miss latency
system.cpu.dcache.WriteReq_hits::.cpu.data       344511                       # number of WriteReq hits
system.cpu.dcache.WriteReq_hits::total         344511                       # number of WriteReq hits
system.cpu.dcache.WriteReq_misses::.cpu.data         2214                       # number of WriteReq misses
system.cpu.dcache.WriteReq_misses::total         2214                       # number of WriteReq misses
system.cpu.dcache.WriteReq_miss_latency::.cpu.data    109995999                       # number of WriteReq miss cycles
system.cpu.dcache.WriteReq_miss_latency::total    109995999                       # number of WriteReq miss cycles
system.cpu.dcache.WriteReq_accesses::.cpu.data       346725                       # number of WriteReq accesses(hits+misses)
system.cpu.dcache.WriteReq_accesses::total       346725                       # number of WriteReq accesses(hits+misses)
system.cpu.dcache.WriteReq_miss_rate::.cpu.data     0.006385                       # miss rate for WriteReq accesses
system.cpu.dcache.WriteReq_miss_rate::total     0.006385                       # miss rate for WriteReq accesses
system.cpu.dcache.WriteReq_avg_miss_latency::.cpu.data 49682.023035                       # average WriteReq miss latency
system.cpu.dcache.WriteReq_avg_miss_latency::total 49682.023035                       # average WriteReq miss latency
system.cpu.dcache.WriteReq_mshr_hits::.cpu.data           44                       # number of WriteReq MSHR hits
system.cpu.dcache.WriteReq_mshr_hits::total           44                       # number of WriteReq MSHR hits
system.cpu.dcache.WriteReq_mshr_misses::.cpu.data         2170                       # number of WriteReq MSHR misses
system.cpu.dcache.WriteReq_mshr_misses::total         2170                       # number of WriteReq MSHR misses
system.cpu.dcache.WriteReq_mshr_miss_latency::.cpu.data    106591199                       # number of WriteReq MSHR miss cycles
[...]
system.l2cache.overall_mshr_miss_latency::total     24716361                       # number of overall MSHR miss cycles
system.l2cache.demand_mshr_miss_rate::.cpu.inst     0.518750                       # mshr miss rate for demand accesses
system.l2cache.demand_mshr_miss_rate::.cpu.data     0.520000                       # mshr miss rate for demand accesses
system.l2cache.demand_mshr_miss_rate::.cpu.dcache.prefetcher     0.725490                       # mshr miss rate for demand accesses
system.l2cache.demand_mshr_miss_rate::total     0.532650                       # mshr miss rate for demand accesses
system.l2cache.overall_mshr_miss_rate::.cpu.inst     0.518750                       # mshr miss rate for overall accesses
system.l2cache.overall_mshr_miss_rate::.cpu.data     0.520000                       # mshr miss rate for overall accesses
system.l2cache.overall_mshr_miss_rate::.cpu.dcache.prefetcher     0.725490                       # mshr miss rate for overall accesses
system.l2cache.overall_mshr_miss_rate::.l2cache.prefetcher          inf                       # mshr miss rate for overall accesses
system.l2cache.overall_mshr_miss_rate::total     0.535211                       # mshr miss rate for overall accesses
system.l2cache.demand_avg_mshr_miss_latency::.cpu.inst 58865.863454                       # average overall mshr miss latency
system.l2cache.demand_avg_mshr_miss_latency::.cpu.data 59547.692308                       # average overall mshr miss latency
system.l2cache.demand_avg_mshr_miss_latency::.cpu.dcache.prefetcher 59296.324324                       # average overall mshr miss latency
system.l2cache.demand_avg_mshr_miss_latency::total 59117.221154                       # average overall mshr miss latency
system.l2cache.overall_avg_mshr_miss_latency::.cpu.inst 58865.863454                       # average overall mshr miss latency
system.l2cache.overall_avg_mshr_miss_latency::.cpu.data 59547.692308                       # average overall mshr miss latency
system.l2cache.overall_avg_mshr_miss_latency::.cpu.dcache.prefetcher 59296.324324                       # average overall mshr miss latency
system.l2cache.overall_avg_mshr_miss_latency::.l2cache.prefetcher 61798.500000                       # average overall mshr miss latency
system.l2cache.overall_avg_mshr_miss_latency::total 59130.050239                       # average overall mshr miss latency
system.l2cache.replacements                       428                       # number of replacements
system.l2cache.WritebackDirty_hits::.writebacks          112                       # number of WritebackDirty hits
system.l2cache.WritebackDirty_hits::total          112                       # number of WritebackDirty hits
system.l2cache.WritebackDirty_accesses::.writebacks          112                       # number of WritebackDirty accesses(hits+misses)
system.l2cache.WritebackDirty_accesses::total          112                       # number of WritebackDirty accesses(hits+misses)
system.l2cache.CleanEvict_mshr_misses::.writebacks            6                       # number of CleanEvict MSHR misses
system.l2cache.CleanEvict_mshr_misses::total            6                       # number of CleanEvict MSHR misses
system.l2cache.CleanEvict_mshr_miss_rate::.writebacks          inf                       # mshr miss rate for CleanEvict accesses
system.l2cache.CleanEvict_mshr_miss_rate::total          inf                       # mshr miss rate for CleanEvict accesses
system.l2cache.HardPFReq_mshr_misses::.l2cache.prefetcher            2                       # number of HardPFReq MSHR misses
system.l2cache.HardPFReq_mshr_misses::total            2                       # number of HardPFReq MSHR misses
system.l2cache.HardPFReq_mshr_miss_latency::.l2cache.prefetcher       123597                       # number of HardPFReq MSHR miss cycles
system.l2cache.HardPFReq_mshr_miss_latency::total       123597                       # number of HardPFReq MSHR miss cycles
system.l2cache.HardPFReq_mshr_miss_rate::.l2cache.prefetcher          inf                       # mshr miss rate for HardPFReq accesses
system.l2cache.HardPFReq_mshr_miss_rate::total          inf                       # mshr miss rate for HardPFReq accesses
system.l2cache.HardPFReq_avg_mshr_miss_latency::.l2cache.prefetcher 61798.500000                       # average HardPFReq mshr miss latency
system.l2cache.HardPFReq_avg_mshr_miss_latency::total 61798.500000                       # average HardPFReq mshr miss latency
system.l2cache.ReadExReq_hits::.cpu.data            6                       # number of ReadExReq hits
system.l2cache.ReadExReq_hits::total                6                       # number of ReadExReq hits
system.l2cache.ReadExReq_misses::.cpu.data           15                       # number of ReadExReq misses
system.l2cache.ReadExReq_misses::total             15                       # number of ReadExReq misses
system.l2cache.ReadExReq_miss_latency::.cpu.data       948800                       # number of ReadExReq miss cycles
system.l2cache.ReadExReq_miss_latency::total       948800                       # number of ReadExReq miss cycles
system.l2cache.ReadExReq_accesses::.cpu.data           21                       # number of ReadExReq accesses(hits+misses)
system.l2cache.ReadExReq_accesses::total           21                       # number of ReadExReq accesses(hits+misses)
system.l2cache.ReadExReq_miss_rate::.cpu.data     0.714286                       # miss rate for ReadExReq accesses
system.l2cache.ReadExReq_miss_rate::total     0.714286                       # miss rate for ReadExReq accesses
system.l2cache.ReadExReq_avg_miss_latency::.cpu.data 63253.333333                       # average ReadExReq miss latency
system.l2cache.ReadExReq_avg_miss_latency::total 63253.333333                       # average ReadExReq miss latency
system.l2cache.ReadExReq_mshr_misses::.cpu.data           15                       # number of ReadExReq MSHR misses
system.l2cache.ReadExReq_mshr_misses::total           15                       # number of ReadExReq MSHR misses
system.l2cache.ReadExReq_mshr_miss_latency::.cpu.data       828800                       # number of ReadExReq MSHR miss cycles
system.l2cache.ReadExReq_mshr_miss_latency::total       828800                       # number of ReadExReq MSHR miss cycles
system.l2cache.ReadExReq_mshr_miss_rate::.cpu.data     0.714286                       # mshr miss rate for ReadExReq accesses
system.l2cache.ReadExReq_mshr_miss_rate::total     0.714286                       # mshr miss rate for ReadExReq accesses
system.l2cache.ReadExReq_avg_mshr_miss_latency::.cpu.data 55253.333333                       # average ReadExReq mshr miss latency
system.l2cache.ReadExReq_avg_mshr_miss_latency::total 55253.333333                       # average ReadExReq mshr miss latency
system.l2cache.ReadSharedReq_hits::.cpu.inst          231                       # number of ReadSharedReq hits
system.l2cache.ReadSharedReq_hits::.cpu.data          114                       # number of ReadSharedReq hits
system.l2cache.ReadSharedReq_hits::.cpu.dcache.prefetcher           14                       # number of ReadSharedReq hits
system.l2cache.ReadSharedReq_hits::total          359                       # number of ReadSharedReq hits
system.l2cache.ReadSharedReq_misses::.cpu.inst          249                       # number of ReadSharedReq misses
system.l2cache.ReadSharedReq_misses::.cpu.data          115                       # number of ReadSharedReq misses
system.l2cache.ReadSharedReq_misses::.cpu.dcache.prefetcher           37                       # number of ReadSharedReq misses
system.l2cache.ReadSharedReq_misses::total          401                       # number of ReadSharedReq misses
system.l2cache.ReadSharedReq_miss_latency::.cpu.inst     16641600                       # number of ReadSharedReq miss cycles
system.l2cache.ReadSharedReq_miss_latency::.cpu.data      7832400                       # number of ReadSharedReq miss cycles
system.l2cache.ReadSharedReq_miss_latency::.cpu.dcache.prefetcher      2489964                       # number of ReadSharedReq miss cycles
system.l2cache.ReadSharedReq_miss_latency::total     26963964                       # number of ReadSharedReq miss cycles
system.l2cache.ReadSharedReq_accesses::.cpu.inst          480                       # number of ReadSharedReq accesses(hits+misses)
system.l2cache.ReadSharedReq_accesses::.cpu.data          229                       # number of ReadSharedReq accesses(hits+misses)
system.l2cache.ReadSharedReq_accesses::.cpu.dcache.prefetcher           51                       # number of ReadSharedReq accesses(hits+misses)
system.l2cache.ReadSharedReq_accesses::total          760                       # number of ReadSharedReq accesses(hits+misses)
system.l2cache.ReadSharedReq_miss_rate::.cpu.inst     0.518750                       # miss rate for ReadSharedReq accesses
system.l2cache.ReadSharedReq_miss_rate::.cpu.data     0.502183                       # miss rate for ReadSharedReq accesses
system.l2cache.ReadSharedReq_miss_rate::.cpu.dcache.prefetcher     0.725490                       # miss rate for ReadSharedReq accesses
system.l2cache.ReadSharedReq_miss_rate::total     0.527632                       # miss rate for ReadSharedReq accesses
system.l2cache.ReadSharedReq_avg_miss_latency::.cpu.inst 66833.734940                       # average ReadSharedReq miss latency
system.l2cache.ReadSharedReq_avg_miss_latency::.cpu.data 68107.826087                       # average ReadSharedReq miss latency
system.l2cache.ReadSharedReq_avg_miss_latency::.cpu.dcache.prefetcher 67296.324324                       # average ReadSharedReq miss latency
system.l2cache.ReadSharedReq_avg_miss_latency::total 67241.805486                       # average ReadSharedReq miss latency
system.l2cache.ReadSharedReq_mshr_misses::.cpu.inst          249                       # number of ReadSharedReq MSHR misses
system.l2cache.ReadSharedReq_mshr_misses::.cpu.data          115                       # number of ReadSharedReq MSHR misses
system.l2cache.ReadSharedReq_mshr_misses::.cpu.dcache.prefetcher           37                       # number of ReadSharedReq MSHR misses
system.l2cache.ReadSharedReq_mshr_misses::total          401                       # number of ReadSharedReq MSHR misses
system.l2cache.ReadSharedReq_mshr_miss_latency::.cpu.inst     14657600                       # number of ReadSharedReq MSHR miss cycles
system.l2cache.ReadSharedReq_mshr_miss_latency::.cpu.data      6912400                       # number of ReadSharedReq MSHR miss cycles
system.l2cache.ReadSharedReq_mshr_miss_latency::.cpu.dcache.prefetcher      2193964                       # number of ReadSharedReq MSHR miss cycles
system.l2cache.ReadSharedReq_mshr_miss_latency::total     23763964                       # number of ReadSharedReq MSHR miss cycles
system.l2cache.ReadSharedReq_mshr_miss_rate::.cpu.inst     0.518750                       # mshr miss rate for ReadSharedReq accesses
system.l2cache.ReadSharedReq_mshr_miss_rate::.cpu.data     0.502183                       # mshr miss rate for ReadSharedReq accesses
system.l2cache.ReadSharedReq_mshr_miss_rate::.cpu.dcache.prefetcher     0.725490                       # mshr miss rate for ReadSharedReq accesses
system.l2cache.ReadSharedReq_mshr_miss_rate::total     0.527632                       # mshr miss rate for ReadSharedReq accesses
system.l2cache.ReadSharedReq_avg_mshr_miss_latency::.cpu.inst 58865.863454                       # average ReadSharedReq mshr miss latency
system.l2cache.ReadSharedReq_avg_mshr_miss_latency::.cpu.data 60107.826087                       # average ReadSharedReq mshr miss latency
system.l2cache.ReadSharedReq_avg_mshr_miss_latency::.cpu.dcache.prefetcher 59296.324324                       # average ReadSharedReq mshr miss latency
system.l2cache.ReadSharedReq_avg_mshr_miss_latency::total 59261.755611                       # average ReadSharedReq mshr miss latency
system.l2cache.prefetcher.pwrStateResidencyTicks::UNDEFINED     30271200                       # Cumulative time (in ticks) in various power states
system.l2cache.tags.pwrStateResidencyTicks::UNDEFINED     30271200                       # Cumulative time (in ticks) in various power states
system.l2cache.tags.tagsinuse                    4096                       # Cycle average of tags in use
system.l2cache.tags.total_refs                  13965                       # Total number of references to valid blocks.
system.l2cache.tags.sampled_refs                 4524                       # Sample count of references to valid blocks.
system.l2cache.tags.avg_refs                 3.086870                       # Average number of references to valid blocks.
system.l2cache.tags.warmup_cycle                    0                       # Cycle when the warmup percentage was hit.
system.l2cache.tags.occ_blocks::.writebacks    43.126444                       # Average occupied blocks per requestor
system.l2cache.tags.occ_blocks::.cpu.inst  1120.704700                       # Average occupied blocks per requestor
system.l2cache.tags.occ_blocks::.cpu.data  1826.236580                       # Average occupied blocks per requestor
system.l2cache.tags.occ_blocks::.cpu.dcache.prefetcher   961.019806                       # Average occupied blocks per requestor
system.l2cache.tags.occ_blocks::.l2cache.prefetcher   144.912471                       # Average occupied blocks per requestor
system.l2cache.tags.occ_percent::.writebacks     0.010529                       # Average percentage of cache occupancy
system.l2cache.tags.occ_percent::.cpu.inst     0.273610                       # Average percentage of cache occupancy
system.l2cache.tags.occ_percent::.cpu.data     0.445859                       # Average percentage of cache occupancy
system.l2cache.tags.occ_percent::.cpu.dcache.prefetcher     0.234624                       # Average percentage of cache occupancy
system.l2cache.tags.occ_percent::.l2cache.prefetcher     0.035379                       # Average percentage of cache occupancy
system.l2cache.tags.occ_percent::total              1                       # Average percentage of cache occupancy
system.l2cache.tags.occ_task_id_blocks::1022         1046                       # Occupied blocks per task id
system.l2cache.tags.occ_task_id_blocks::1024         3050                       # Occupied blocks per task id
system.l2cache.tags.age_task_id_blocks_1022::0           13                       # Occupied blocks per task id
system.l2cache.tags.age_task_id_blocks_1022::1           51                       # Occupied blocks per task id
system.l2cache.tags.age_task_id_blocks_1022::2          942                       # Occupied blocks per task id
system.l2cache.tags.age_task_id_blocks_1022::3           40                       # Occupied blocks per task id
system.l2cache.tags.age_task_id_blocks_1024::0          177                       # Occupied blocks per task id
system.l2cache.tags.age_task_id_blocks_1024::1          375                       # Occupied blocks per task id
system.l2cache.tags.age_task_id_blocks_1024::2         2297                       # Occupied blocks per task id
system.l2cache.tags.age_task_id_blocks_1024::3          201                       # Occupied blocks per task id
system.l2cache.tags.occ_task_id_percent::1022     0.255371                       # Percentage of cache occupancy per task id
system.l2cache.tags.occ_task_id_percent::1024     0.744629                       # Percentage of cache occupancy per task id
system.l2cache.tags.tag_accesses                12900                       # Number of tag accesses
system.l2cache.tags.data_accesses               12900                       # Number of data accesses
system.mem_ctrl.pwrStateResidencyTicks::UNDEFINED     30271200                       # Cumulative time (in ticks) in various power states
system.mem_ctrl.bytes_read::.cpu.inst           15872                       # Number of bytes read from this memory
system.mem_ctrl.bytes_read::.cpu.data            8320                       # Number of bytes read from this memory
system.mem_ctrl.bytes_read::.cpu.dcache.prefetcher         2368                       # Number of bytes read from this memory
system.mem_ctrl.bytes_read::.l2cache.prefetcher          128                       # Number of bytes read from this memory
system.mem_ctrl.bytes_read::total               26688                       # Number of bytes read from this memory
system.mem_ctrl.bytes_inst_read::.cpu.inst        15872                       # Number of instructions bytes read from this memory
system.mem_ctrl.bytes_inst_read::total          15872                       # Number of instructions bytes read from this memory
system.mem_ctrl.bytes_written::.writebacks         1984                       # Number of bytes written to this memory
system.mem_ctrl.bytes_written::total             1984                       # Number of bytes written to this memory
system.mem_ctrl.num_reads::.cpu.inst              248                       # Number of read requests responded to by this memory
system.mem_ctrl.num_reads::.cpu.data              130                       # Number of read requests responded to by this memory
system.mem_ctrl.num_reads::.cpu.dcache.prefetcher           37                       # Number of read requests responded to by this memory
system.mem_ctrl.num_reads::.l2cache.prefetcher            2                       # Number of read requests responded to by this memory
system.mem_ctrl.num_reads::total                  417                       # Number of read requests responded to by this memory
system.mem_ctrl.num_writes::.writebacks            31                       # Number of write requests responded to by this memory
system.mem_ctrl.num_writes::total                  31                       # Number of write requests responded to by this memory
system.mem_ctrl.bw_read::.cpu.inst          524326753                       # Total read bandwidth from this memory (bytes/s)
system.mem_ctrl.bw_read::.cpu.data          274848701                       # Total read bandwidth from this memory (bytes/s)
system.mem_ctrl.bw_read::.cpu.dcache.prefetcher     78226169                       # Total read bandwidth from this memory (bytes/s)
system.mem_ctrl.bw_read::.l2cache.prefetcher      4228442                       # Total read bandwidth from this memory (bytes/s)
system.mem_ctrl.bw_read::total              881630064                       # Total read bandwidth from this memory (bytes/s)
system.mem_ctrl.bw_inst_read::.cpu.inst     524326753                       # Instruction read bandwidth from this memory (bytes/s)
system.mem_ctrl.bw_inst_read::total         524326753                       # Instruction read bandwidth from this memory (bytes/s)
system.mem_ctrl.bw_write::.writebacks        65540844                       # Write bandwidth from this memory (bytes/s)
system.mem_ctrl.bw_write::total              65540844                       # Write bandwidth from this memory (bytes/s)
system.mem_ctrl.bw_total::.writebacks        65540844                       # Total bandwidth to/from this memory (bytes/s)
system.mem_ctrl.bw_total::.cpu.inst         524326753                       # Total bandwidth to/from this memory (bytes/s)
system.mem_ctrl.bw_total::.cpu.data         274848701                       # Total bandwidth to/from this memory (bytes/s)
system.mem_ctrl.bw_total::.cpu.dcache.prefetcher     78226169                       # Total bandwidth to/from this memory (bytes/s)
system.mem_ctrl.bw_total::.l2cache.prefetcher      4228442                       # Total bandwidth to/from this memory (bytes/s)
system.mem_ctrl.bw_total::total             947170908                       # Total bandwidth to/from this memory (bytes/s)

---------- End Simulation Statistics   ----------
