
---------- Begin Simulation Statistics ----------
final_tick                                 1876698800                       # Number of ticks from beginning of simulation (restored from checkpoints and never reset)
host_inst_rate                                 172354                       # Simulator instruction rate (inst/s)
host_mem_usage                                4406824                       # Number of bytes of host memory used
host_op_rate                                   315201                       # Simulator op (including micro ops) rate (op/s)
host_seconds                                    25.81                       # Real time elapsed on the host
host_tick_rate                               72699955                       # Simulator tick rate (ticks/s)
sim_freq                                 1000000000000                       # Frequency of simulated ticks
sim_insts                                     4449175                       # Number of instructions simulated
sim_ops                                       8136696                       # Number of ops (including micro ops) simulated
sim_seconds                                  0.001877                       # Number of seconds simulated
sim_ticks                                  1876698800                       # Number of ticks simulated
system.cpu.branchPred.BTBCorrect                    0                       # Number of correct BTB predictions (this stat may not work properly.
system.cpu.branchPred.BTBHitPct              0.000000                       # BTB Hit Percentage
system.cpu.branchPred.BTBHits                       0                       # Number of BTB hits
system.cpu.branchPred.BTBLookups               885309                       # Number of BTB lookups
system.cpu.branchPred.RASInCorrect                  6                       # Number of incorrect RAS predictions.
system.cpu.branchPred.condIncorrect             36440                       # Number of conditional branches incorrect
system.cpu.branchPred.condPredicted            918992                       # Number of conditional branches predicted
system.cpu.branchPred.indirectHits             482153                       # Number of indirect target hits.
system.cpu.branchPred.indirectLookups          885309                       # Number of indirect predictor lookups.
system.cpu.branchPred.indirectMisses           403156                       # Number of indirect misses.
system.cpu.branchPred.lookups                 1021591                       # Number of BP lookups
system.cpu.branchPred.usedRAS                   50161                       # Number of times the RAS was used to get a target.
system.cpu.branchPredindirectMispredicted        18907                       # Number of mispredicted indirect branches.
system.cpu.cc_regfile_reads                   5008866                       # number of cc regfile reads
system.cpu.cc_regfile_writes                  3517952                       # number of cc regfile writes
system.cpu.commit.amos                              0                       # Number of atomic instructions committed
system.cpu.commit.branchMispredicts             36549                       # The number of times a branch was mispredicted
system.cpu.commit.branches                     825740                       # Number of branches committed
system.cpu.commit.bw_lim_events               1300357                       # number cycles where commit BW limit reached
system.cpu.commit.commitNonSpecStalls             748                       # The number of times commit has been forced to stall to communicate backwards
system.cpu.commit.commitSquashedInsts         1156094                       # The number of squashed insts skipped by commit
system.cpu.commit.committedInsts              4449175                       # Number of instructions committed
system.cpu.commit.committedOps                8136696                       # Number of ops (including micro ops) committed
system.cpu.commit.committed_per_cycle::samples      4212047                       # Number of insts commited each cycle
system.cpu.commit.committed_per_cycle::mean     1.931768                       # Number of insts commited each cycle
system.cpu.commit.committed_per_cycle::stdev     1.679682                       # Number of insts commited each cycle
system.cpu.commit.committed_per_cycle::underflows            0      0.00%      0.00% # Number of insts commited each cycle
system.cpu.commit.committed_per_cycle::0      1403631     33.32%     33.32% # Number of insts commited each cycle
system.cpu.commit.committed_per_cycle::1       584041     13.87%     47.19% # Number of insts commited each cycle
system.cpu.commit.committed_per_cycle::2       420827      9.99%     57.18% # Number of insts commited each cycle
system.cpu.commit.committed_per_cycle::3       503191     11.95%     69.13% # Number of insts commited each cycle
system.cpu.commit.committed_per_cycle::4      1300357     30.87%    100.00% # Number of insts commited each cycle
system.cpu.commit.committed_per_cycle::overflows            0      0.00%    100.00% # Number of insts commited each cycle
system.cpu.commit.committed_per_cycle::min_value            0                       # Number of insts commited each cycle
system.cpu.commit.committed_per_cycle::max_value            4                       # Number of insts commited each cycle
system.cpu.commit.committed_per_cycle::total      4212047                       # Number of insts commited each cycle
system.cpu.commit.fp_insts                     223443                       # Number of committed floating point instructions.
system.cpu.commit.function_calls                45994                       # Number of function calls committed.
system.cpu.commit.int_insts                   7954445                       # Number of committed integer instructions.
system.cpu.commit.loads                       1031781                       # Number of loads committed
system.cpu.commit.membars                           1                       # Number of memory barriers committed
system.cpu.commit.op_class_0::No_OpClass        36917      0.45%      0.45% # Class of committed instruction
system.cpu.commit.op_class_0::IntAlu          6324805     77.73%     78.19% # Class of committed instruction
system.cpu.commit.op_class_0::IntMult           27783      0.34%     78.53% # Class of committed instruction
system.cpu.commit.op_class_0::IntDiv            37764      0.46%     78.99% # Class of committed instruction
system.cpu.commit.op_class_0::FloatAdd           9040      0.11%     79.10% # Class of committed instruction
system.cpu.commit.op_class_0::FloatCmp              0      0.00%     79.10% # Class of committed instruction
system.cpu.commit.op_class_0::FloatCvt           1216      0.01%     79.12% # Class of committed instruction
system.cpu.commit.op_class_0::FloatMult             0      0.00%     79.12% # Class of committed instruction
system.cpu.commit.op_class_0::FloatMultAcc            0      0.00%     79.12% # Class of committed instruction
system.cpu.commit.op_class_0::FloatDiv              0      0.00%     79.12% # Class of committed instruction
system.cpu.commit.op_class_0::FloatMisc             0      0.00%     79.12% # Class of committed instruction
system.cpu.commit.op_class_0::FloatSqrt             0      0.00%     79.12% # Class of committed instruction
system.cpu.commit.op_class_0::SimdAdd            6262      0.08%     79.19% # Class of committed instruction
system.cpu.commit.op_class_0::SimdAddAcc            0      0.00%     79.19% # Class of committed instruction
system.cpu.commit.op_class_0::SimdAlu           35867      0.44%     79.63% # Class of committed instruction
system.cpu.commit.op_class_0::SimdCmp               0      0.00%     79.63% # Class of committed instruction
system.cpu.commit.op_class_0::SimdCvt           36792      0.45%     80.09% # Class of committed instruction
system.cpu.commit.op_class_0::SimdMisc          61868      0.76%     80.85% # Class of committed instruction
system.cpu.commit.op_class_0::SimdMult              0      0.00%     80.85% # Class of committed instruction
system.cpu.commit.op_class_0::SimdMultAcc            0      0.00%     80.85% # Class of committed instruction
system.cpu.commit.op_class_0::SimdShift          1229      0.02%     80.86% # Class of committed instruction
system.cpu.commit.op_class_0::SimdShiftAcc            0      0.00%     80.86% # Class of committed instruction
system.cpu.commit.op_class_0::SimdDiv               0      0.00%     80.86% # Class of committed instruction
system.cpu.commit.op_class_0::SimdSqrt              0      0.00%     80.86% # Class of committed instruction
system.cpu.commit.op_class_0::SimdFloatAdd            0      0.00%     80.86% # Class of committed instruction
system.cpu.commit.op_class_0::SimdFloatAlu            0      0.00%     80.86% # Class of committed instruction
system.cpu.commit.op_class_0::SimdFloatCmp            0      0.00%     80.86% # Class of committed instruction
system.cpu.commit.op_class_0::SimdFloatCvt            0      0.00%     80.86% # Class of committed instruction
system.cpu.commit.op_class_0::SimdFloatDiv            0      0.00%     80.86% # Class of committed instruction
system.cpu.commit.op_class_0::SimdFloatMisc            0      0.00%     80.86% # Class of committed instruction
system.cpu.commit.op_class_0::SimdFloatMult            0      0.00%     80.86% # Class of committed instruction
system.cpu.commit.op_class_0::SimdFloatMultAcc            0      0.00%     80.86% # Class of committed instruction
system.cpu.commit.op_class_0::SimdFloatSqrt            0      0.00%     80.86% # Class of committed instruction
system.cpu.commit.op_class_0::SimdReduceAdd            0      0.00%     80.86% # Class of committed instruction
system.cpu.commit.op_class_0::SimdReduceAlu            0      0.00%     80.86% # Class of committed instruction
system.cpu.commit.op_class_0::SimdReduceCmp            0      0.00%     80.86% # Class of committed instruction
system.cpu.commit.op_class_0::SimdFloatReduceAdd            0      0.00%     80.86% # Class of committed instruction
system.cpu.commit.op_class_0::SimdFloatReduceCmp            0      0.00%     80.86% # Class of committed instruction
system.cpu.commit.op_class_0::SimdAes               0      0.00%     80.86% # Class of committed instruction
system.cpu.commit.op_class_0::SimdAesMix            0      0.00%     80.86% # Class of committed instruction
system.cpu.commit.op_class_0::SimdSha1Hash            0      0.00%     80.86% # Class of committed instruction
system.cpu.commit.op_class_0::SimdSha1Hash2            0      0.00%     80.86% # Class of committed instruction
system.cpu.commit.op_class_0::SimdSha256Hash            0      0.00%     80.86% # Class of committed instruction
system.cpu.commit.op_class_0::SimdSha256Hash2            0      0.00%     80.86% # Class of committed instruction
system.cpu.commit.op_class_0::SimdShaSigma2            0      0.00%     80.86% # Class of committed instruction
system.cpu.commit.op_class_0::SimdShaSigma3            0      0.00%     80.86% # Class of committed instruction
system.cpu.commit.op_class_0::SimdPredAlu            0      0.00%     80.86% # Class of committed instruction
system.cpu.commit.op_class_0::MemRead          996109     12.24%     93.10% # Class of committed instruction
system.cpu.commit.op_class_0::MemWrite         509165      6.26%     99.36% # Class of committed instruction
system.cpu.commit.op_class_0::FloatMemRead        35672      0.44%     99.80% # Class of committed instruction
system.cpu.commit.op_class_0::FloatMemWrite        16207      0.20%    100.00% # Class of committed instruction
system.cpu.commit.op_class_0::IprAccess             0      0.00%    100.00% # Class of committed instruction
system.cpu.commit.op_class_0::InstPrefetch            0      0.00%    100.00% # Class of committed instruction
system.cpu.commit.op_class_0::total           8136696                       # Class of committed instruction
system.cpu.commit.refs                        1557153                       # Number of memory references committed
system.cpu.commit.swp_count                         0                       # Number of s/w prefetches committed
system.cpu.commit.vec_insts                         0                       # Number of committed Vector instructions.
system.cpu.committedInsts                     4449175                       # Number of Instructions Simulated
system.cpu.committedOps                       8136696                       # Number of Ops (including micro ops) Simulated
system.cpu.cpi                               1.054521                       # CPI: Cycles Per Instruction
system.cpu.cpi_total                         1.054521                       # CPI: Total CPI of All Threads
system.cpu.dcache.prefetcher.num_hwpf_issued         8150                       # number of hwpf issued
system.cpu.dcache.prefetcher.pfBufferHit        33937                       # number of redundant prefetches already in prefetch queue
system.cpu.dcache.prefetcher.pfIdentified        48822                       # number of prefetch candidates identified
system.cpu.dcache.prefetcher.pfInCache              0                       # number of redundant prefetches already in cache/mshr dropped
system.cpu.dcache.prefetcher.pfRemovedFull            0                       # number of prefetches dropped due to prefetch queue size
system.cpu.dcache.prefetcher.pfSpanPage          4270                       # number of prefetches that crossed the page
system.cpu.decode.BlockedCycles               1104612                       # Number of cycles decode is blocked
system.cpu.decode.DecodedInsts                9602428                       # Number of instructions handled by decode
system.cpu.decode.IdleCycles                   753100                       # Number of cycles decode is idle
system.cpu.decode.RunCycles                   2523677                       # Number of cycles decode is running
system.cpu.decode.SquashCycles                  36649                       # Number of cycles decode is squashing
system.cpu.decode.UnblockCycles                107910                       # Number of cycles decode is unblocking
system.cpu.dtb.rdAccesses                     1143353                       # TLB accesses on read requests
system.cpu.dtb.rdMisses                          1942                       # TLB misses on read requests
system.cpu.dtb.wrAccesses                      551565                       # TLB accesses on write requests
system.cpu.dtb.wrMisses                           151                       # TLB misses on write requests
system.cpu.fetch.Branches                     1021591                       # Number of branches that fetch encountered
system.cpu.fetch.CacheLines                    666452                       # Number of cache lines fetched
system.cpu.fetch.Cycles                       3720705                       # Number of cycles fetch has run and was not squashing or blocked
system.cpu.fetch.IcacheSquashes                  5936                       # Number of outstanding Icache misses that were squashed
system.cpu.fetch.Insts                        5437802                       # Number of instructions fetch has processed
system.cpu.fetch.MiscStallCycles                  154                       # Number of cycles fetch has spent waiting on interrupts, or bad addresses, or out of MSHRs
system.cpu.fetch.PendingQuiesceStallCycles            6                       # Number of stall cycles due to pending quiesce instructions
system.cpu.fetch.PendingTrapStallCycles           818                       # Number of stall cycles due to pending traps
system.cpu.fetch.SquashCycles                   73298                       # Number of cycles fetch has spent squashing
system.cpu.fetch.branchRate                  0.217742                       # Number of branch fetches per cycle
system.cpu.fetch.icacheStallCycles             767616                       # Number of cycles fetch is stalled on an Icache miss
system.cpu.fetch.predictedBranches             532314                       # Number of branches that fetch has predicted taken
system.cpu.fetch.rate                        1.159014                       # Number of inst fetches per cycle
system.cpu.fetch.rateDist::samples            4525948                       # Number of instructions fetched each cycle (Total)
system.cpu.fetch.rateDist::mean              2.190672                       # Number of instructions fetched each cycle (Total)
system.cpu.fetch.rateDist::stdev             1.891595                       # Number of instructions fetched each cycle (Total)
system.cpu.fetch.rateDist::underflows               0      0.00%      0.00% # Number of instructions fetched each cycle (Total)
system.cpu.fetch.rateDist::0                  1756462     38.81%     38.81% # Number of instructions fetched each cycle (Total)
system.cpu.fetch.rateDist::1                   248370      5.49%     44.30% # Number of instructions fetched each cycle (Total)
system.cpu.fetch.rateDist::2                   127100      2.81%     47.10% # Number of instructions fetched each cycle (Total)
system.cpu.fetch.rateDist::3                   163768      3.62%     50.72% # Number of instructions fetched each cycle (Total)
system.cpu.fetch.rateDist::4                  2230248     49.28%    100.00% # Number of instructions fetched each cycle (Total)
system.cpu.fetch.rateDist::overflows                0      0.00%    100.00% # Number of instructions fetched each cycle (Total)
system.cpu.fetch.rateDist::min_value                0                       # Number of instructions fetched each cycle (Total)
system.cpu.fetch.rateDist::max_value                4                       # Number of instructions fetched each cycle (Total)
system.cpu.fetch.rateDist::total              4525948                       # Number of instructions fetched each cycle (Total)
system.cpu.fp_regfile_reads                    378147                       # number of floating regfile reads
system.cpu.fp_regfile_writes                   200401                       # number of floating regfile writes
system.cpu.fuPool.fu_ticks_busy::IntALU(0)    459352400                       # Total ticks fu was busy
system.cpu.fuPool.fu_ticks_busy::IntALU(1)    459352400                       # Total ticks fu was busy
system.cpu.fuPool.fu_ticks_busy::IntALU(2)    459352000                       # Total ticks fu was busy
system.cpu.fuPool.fu_ticks_busy::IntALU(3)    459352000                       # Total ticks fu was busy
system.cpu.fuPool.fu_ticks_busy::IntALU(4)    459352000                       # Total ticks fu was busy
system.cpu.fuPool.fu_ticks_busy::IntALU(5)    459352000                       # Total ticks fu was busy
system.cpu.fuPool.fu_ticks_busy::IntMultDiv(0)     13913200                       # Total ticks fu was busy
system.cpu.fuPool.fu_ticks_busy::IntMultDiv(1)     13912400                       # Total ticks fu was busy
system.cpu.fuPool.fu_ticks_busy::FP_ALU(0)      1197600                       # Total ticks fu was busy
system.cpu.fuPool.fu_ticks_busy::FP_ALU(1)      1197600                       # Total ticks fu was busy
system.cpu.fuPool.fu_ticks_busy::FP_ALU(2)      1197200                       # Total ticks fu was busy
system.cpu.fuPool.fu_ticks_busy::FP_ALU(3)      1197200                       # Total ticks fu was busy
system.cpu.fuPool.fu_ticks_busy::FP_MultDiv(0)            0                       # Total ticks fu was busy
system.cpu.fuPool.fu_ticks_busy::FP_MultDiv(1)            0                       # Total ticks fu was busy
system.cpu.fuPool.fu_ticks_busy::SIMD_Unit(0)     15155200                       # Total ticks fu was busy
system.cpu.fuPool.fu_ticks_busy::SIMD_Unit(1)     15152000                       # Total ticks fu was busy
system.cpu.fuPool.fu_ticks_busy::SIMD_Unit(2)     14502000                       # Total ticks fu was busy
system.cpu.fuPool.fu_ticks_busy::SIMD_Unit(3)     15309200                       # Total ticks fu was busy
system.cpu.fuPool.fu_ticks_busy::PredALU(0)            0                       # Total ticks fu was busy
system.cpu.fuPool.fu_ticks_busy::RdWrPort(0)    171548000                       # Total ticks fu was busy
system.cpu.fuPool.fu_ticks_busy::RdWrPort(1)    171711600                       # Total ticks fu was busy
system.cpu.fuPool.fu_ticks_busy::RdWrPort(2)    171504800                       # Total ticks fu was busy
system.cpu.fuPool.fu_ticks_busy::RdWrPort(3)    171651200                       # Total ticks fu was busy
system.cpu.fuPool.fu_ticks_busy::IprPort(0)            0                       # Total ticks fu was busy
system.cpu.fuPool.fu_ticks_busy::total     3535262000                       # Total ticks fu was busy
system.cpu.icache.prefetcher.num_hwpf_issued            0                       # number of hwpf issued
system.cpu.icache.prefetcher.pfBufferHit            0                       # number of redundant prefetches already in prefetch queue
system.cpu.icache.prefetcher.pfIdentified            0                       # number of prefetch candidates identified
system.cpu.icache.prefetcher.pfInCache              0                       # number of redundant prefetches already in cache/mshr dropped
system.cpu.icache.prefetcher.pfRemovedFull            0                       # number of prefetches dropped due to prefetch queue size
system.cpu.icache.prefetcher.pfSpanPage             0                       # number of prefetches that crossed the page
system.cpu.idleCycles                          165800                       # Total number of cycles that the CPU has spent unscheduled due to idling
system.cpu.iew.branchMispredicts                42558                       # Number of branch mispredicts detected at execute
system.cpu.iew.exec_branches                   870117                       # Number of branches executed
system.cpu.iew.exec_nop                             0                       # number of nop insts executed
system.cpu.iew.exec_rate                     1.881454                       # Inst execution rate
system.cpu.iew.exec_refs                      1695680                       # number of memory reference insts executed
system.cpu.iew.exec_stores                     550597                       # Number of stores executed
system.cpu.iew.exec_swp                             0                       # number of swp insts executed
system.cpu.iew.iewBlockCycles                  749144                       # Number of cycles IEW is blocking
system.cpu.iew.iewDispLoadInsts               1192174                       # Number of dispatched load instructions
system.cpu.iew.iewDispNonSpecInsts                946                       # Number of dispatched non-speculative instructions
system.cpu.iew.iewDispSquashedInsts               584                       # Number of squashed instructions skipped by dispatch
system.cpu.iew.iewDispStoreInsts               573363                       # Number of dispatched store instructions
system.cpu.iew.iewDispatchedInsts             9292750                       # Number of instructions dispatched to IQ
system.cpu.iew.iewExecLoadInsts               1145083                       # Number of load instructions executed
system.cpu.iew.iewExecSquashedInsts             55502                       # Number of squashed instructions skipped in execute
system.cpu.iew.iewExecutedInsts               8827308                       # Number of executed instructions
system.cpu.iew.iewIQFullEvents                   3299                       # Number of times the IQ has become full, causing a stall
system.cpu.iew.iewIdleCycles                        0                       # Number of cycles IEW is idle
system.cpu.iew.iewLSQFullEvents                  8730                       # Number of times the LSQ has become full, causing a stall
system.cpu.iew.iewSquashCycles                  36649                       # Number of cycles IEW is squashing
system.cpu.iew.iewUnblockCycles                 14854                       # Number of cycles IEW is unblocking
system.cpu.iew.lsq.thread0.blockedLoads             0                       # Number of blocked loads due to partial load-store forwarding
system.cpu.iew.lsq.thread0.cacheBlocked           608                       # Number of times an access to memory failed due to the cache being blocked
system.cpu.iew.lsq.thread0.forwLoads            65402                       # Number of loads that had data forwarded from stores
system.cpu.iew.lsq.thread0.ignoredResponses          272                       # Number of memory responses ignored because the instruction is squashed
system.cpu.iew.lsq.thread0.invAddrLoads             0                       # Number of loads ignored due to an invalid address
system.cpu.iew.lsq.thread0.invAddrSwpfs             0                       # Number of software prefetches ignored due to an invalid address
system.cpu.iew.lsq.thread0.memOrderViolation          111                       # Number of memory ordering violations
system.cpu.iew.lsq.thread0.rescheduledLoads           82                       # Number of loads that were rescheduled
system.cpu.iew.lsq.thread0.squashedLoads       160391                       # Number of loads squashed
system.cpu.iew.lsq.thread0.squashedStores        47990                       # Number of stores squashed
system.cpu.iew.memOrderViolationEvents            111                       # Number of memory order violations
system.cpu.iew.predictedNotTakenIncorrect        30571                       # Number of branches that were predicted not taken incorrectly
system.cpu.iew.predictedTakenIncorrect          11987                       # Number of branches that were predicted taken incorrectly
system.cpu.iew.wb_consumers                  11128951                       # num instructions consuming a value
system.cpu.iew.wb_count                       8798184                       # cumulative count of insts written-back
system.cpu.iew.wb_fanout                     0.594202                       # average fanout of values written-back
system.cpu.iew.wb_producers                   6612841                       # num instructions producing a value
system.cpu.iew.wb_rate                       1.875246                       # insts written-back per cycle
system.cpu.iew.wb_sent                        8807757                       # cumulative count of insts sent to commit
system.cpu.int_regfile_reads                 13455439                       # number of integer regfile reads
system.cpu.int_regfile_writes                 7270667                       # number of integer regfile writes
system.cpu.ipc                               0.948298                       # IPC: Instructions Per Cycle
system.cpu.ipc_total                         0.948298                       # IPC: Total IPC of All Threads
system.cpu.iq.FU_type_0::No_OpClass             44655      0.50%      0.50% # Type of FU issued
system.cpu.iq.FU_type_0::IntAlu               6890283     77.57%     78.07% # Type of FU issued
system.cpu.iq.FU_type_0::IntMult                27805      0.31%     78.38% # Type of FU issued
system.cpu.iq.FU_type_0::IntDiv                 41759      0.47%     78.85% # Type of FU issued
system.cpu.iq.FU_type_0::FloatAdd               10708      0.12%     78.98% # Type of FU issued
system.cpu.iq.FU_type_0::FloatCmp                   0      0.00%     78.98% # Type of FU issued
system.cpu.iq.FU_type_0::FloatCvt                1266      0.01%     78.99% # Type of FU issued
system.cpu.iq.FU_type_0::FloatMult                  0      0.00%     78.99% # Type of FU issued
system.cpu.iq.FU_type_0::FloatMultAcc               0      0.00%     78.99% # Type of FU issued
system.cpu.iq.FU_type_0::FloatDiv                   0      0.00%     78.99% # Type of FU issued
system.cpu.iq.FU_type_0::FloatMisc                  0      0.00%     78.99% # Type of FU issued
system.cpu.iq.FU_type_0::FloatSqrt                  0      0.00%     78.99% # Type of FU issued
system.cpu.iq.FU_type_0::SimdAdd                 6978      0.08%     79.07% # Type of FU issued
system.cpu.iq.FU_type_0::SimdAddAcc                 0      0.00%     79.07% # Type of FU issued
system.cpu.iq.FU_type_0::SimdAlu                39687      0.45%     79.51% # Type of FU issued
system.cpu.iq.FU_type_0::SimdCmp                    0      0.00%     79.51% # Type of FU issued
system.cpu.iq.FU_type_0::SimdCvt                38700      0.44%     79.95% # Type of FU issued
system.cpu.iq.FU_type_0::SimdMisc               62519      0.70%     80.65% # Type of FU issued
system.cpu.iq.FU_type_0::SimdMult                   0      0.00%     80.65% # Type of FU issued
system.cpu.iq.FU_type_0::SimdMultAcc                0      0.00%     80.65% # Type of FU issued
system.cpu.iq.FU_type_0::SimdShift               2412      0.03%     80.68% # Type of FU issued
system.cpu.iq.FU_type_0::SimdShiftAcc               0      0.00%     80.68% # Type of FU issued
system.cpu.iq.FU_type_0::SimdDiv                    0      0.00%     80.68% # Type of FU issued
system.cpu.iq.FU_type_0::SimdSqrt                   0      0.00%     80.68% # Type of FU issued
system.cpu.iq.FU_type_0::SimdFloatAdd               0      0.00%     80.68% # Type of FU issued
system.cpu.iq.FU_type_0::SimdFloatAlu               0      0.00%     80.68% # Type of FU issued
system.cpu.iq.FU_type_0::SimdFloatCmp               0      0.00%     80.68% # Type of FU issued
system.cpu.iq.FU_type_0::SimdFloatCvt               0      0.00%     80.68% # Type of FU issued
system.cpu.iq.FU_type_0::SimdFloatDiv               0      0.00%     80.68% # Type of FU issued
system.cpu.iq.FU_type_0::SimdFloatMisc              0      0.00%     80.68% # Type of FU issued
system.cpu.iq.FU_type_0::SimdFloatMult              0      0.00%     80.68% # Type of FU issued
system.cpu.iq.FU_type_0::SimdFloatMultAcc            0      0.00%     80.68% # Type of FU issued
system.cpu.iq.FU_type_0::SimdFloatSqrt              0      0.00%     80.68% # Type of FU issued
system.cpu.iq.FU_type_0::SimdReduceAdd              0      0.00%     80.68% # Type of FU issued
system.cpu.iq.FU_type_0::SimdReduceAlu              0      0.00%     80.68% # Type of FU issued
system.cpu.iq.FU_type_0::SimdReduceCmp              0      0.00%     80.68% # Type of FU issued
system.cpu.iq.FU_type_0::SimdFloatReduceAdd            0      0.00%     80.68% # Type of FU issued
system.cpu.iq.FU_type_0::SimdFloatReduceCmp            0      0.00%     80.68% # Type of FU issued
system.cpu.iq.FU_type_0::SimdAes                    0      0.00%     80.68% # Type of FU issued
system.cpu.iq.FU_type_0::SimdAesMix                 0      0.00%     80.68% # Type of FU issued
system.cpu.iq.FU_type_0::SimdSha1Hash               0      0.00%     80.68% # Type of FU issued
system.cpu.iq.FU_type_0::SimdSha1Hash2              0      0.00%     80.68% # Type of FU issued
system.cpu.iq.FU_type_0::SimdSha256Hash             0      0.00%     80.68% # Type of FU issued
system.cpu.iq.FU_type_0::SimdSha256Hash2            0      0.00%     80.68% # Type of FU issued
system.cpu.iq.FU_type_0::SimdShaSigma2              0      0.00%     80.68% # Type of FU issued
system.cpu.iq.FU_type_0::SimdShaSigma3              0      0.00%     80.68% # Type of FU issued
system.cpu.iq.FU_type_0::SimdPredAlu                0      0.00%     80.68% # Type of FU issued
system.cpu.iq.FU_type_0::MemRead              1118850     12.60%     93.28% # Type of FU issued
system.cpu.iq.FU_type_0::MemWrite              537514      6.05%     99.33% # Type of FU issued
system.cpu.iq.FU_type_0::FloatMemRead           42049      0.47%     99.80% # Type of FU issued
system.cpu.iq.FU_type_0::FloatMemWrite          17628      0.20%    100.00% # Type of FU issued
system.cpu.iq.FU_type_0::IprAccess                  0      0.00%    100.00% # Type of FU issued
system.cpu.iq.FU_type_0::InstPrefetch               0      0.00%    100.00% # Type of FU issued
system.cpu.iq.FU_type_0::total                8882813                       # Type of FU issued
system.cpu.iq.fp_alu_accesses                  241442                       # Number of floating point alu accesses
system.cpu.iq.fp_inst_queue_reads              484260                       # Number of floating instruction queue reads
system.cpu.iq.fp_inst_queue_wakeup_accesses       237759                       # Number of floating instruction queue wakeup accesses
system.cpu.iq.fp_inst_queue_writes             284841                       # Number of floating instruction queue writes
system.cpu.iq.fu_busy_cnt                           0                       # FU busy when requested
system.cpu.iq.fu_busy_rate                          0                       # FU busy rate (busy events/executed inst)
system.cpu.iq.fu_full::No_OpClass                   0                       # attempts to use FU when none available
system.cpu.iq.fu_full::IntAlu                       0                       # attempts to use FU when none available
system.cpu.iq.fu_full::IntMult                      0                       # attempts to use FU when none available
system.cpu.iq.fu_full::IntDiv                       0                       # attempts to use FU when none available
system.cpu.iq.fu_full::FloatAdd                     0                       # attempts to use FU when none available
system.cpu.iq.fu_full::FloatCmp                     0                       # attempts to use FU when none available
system.cpu.iq.fu_full::FloatCvt                     0                       # attempts to use FU when none available
system.cpu.iq.fu_full::FloatMult                    0                       # attempts to use FU when none available
system.cpu.iq.fu_full::FloatMultAcc                 0                       # attempts to use FU when none available
system.cpu.iq.fu_full::FloatDiv                     0                       # attempts to use FU when none available
system.cpu.iq.fu_full::FloatMisc                    0                       # attempts to use FU when none available
system.cpu.iq.fu_full::FloatSqrt                    0                       # attempts to use FU when none available
system.cpu.iq.fu_full::SimdAdd                      0                       # attempts to use FU when none available
system.cpu.iq.fu_full::SimdAddAcc                   0                       # attempts to use FU when none available
system.cpu.iq.fu_full::SimdAlu                      0                       # attempts to use FU when none available
system.cpu.iq.fu_full::SimdCmp                      0                       # attempts to use FU when none available
system.cpu.iq.fu_full::SimdCvt                      0                       # attempts to use FU when none available
system.cpu.iq.fu_full::SimdMisc                     0                       # attempts to use FU when none available
system.cpu.iq.fu_full::SimdMult                     0                       # attempts to use FU when none available
system.cpu.iq.fu_full::SimdMultAcc                  0                       # attempts to use FU when none available
system.cpu.iq.fu_full::SimdShift                    0                       # attempts to use FU when none available
system.cpu.iq.fu_full::SimdShiftAcc                 0                       # attempts to use FU when none available
system.cpu.iq.fu_full::SimdDiv                      0                       # attempts to use FU when none available
system.cpu.iq.fu_full::SimdSqrt                     0                       # attempts to use FU when none available
system.cpu.iq.fu_full::SimdFloatAdd                 0                       # attempts to use FU when none available
system.cpu.iq.fu_full::SimdFloatAlu                 0                       # attempts to use FU when none available
system.cpu.iq.fu_full::SimdFloatCmp                 0                       # attempts to use FU when none available
system.cpu.iq.fu_full::SimdFloatCvt                 0                       # attempts to use FU when none available
system.cpu.iq.fu_full::SimdFloatDiv                 0                       # attempts to use FU when none available
system.cpu.iq.fu_full::SimdFloatMisc                0                       # attempts to use FU when none available
system.cpu.iq.fu_full::SimdFloatMult                0                       # attempts to use FU when none available
system.cpu.iq.fu_full::SimdFloatMultAcc             0                       # attempts to use FU when none available
system.cpu.iq.fu_full::SimdFloatSqrt                0                       # attempts to use FU when none available
system.cpu.iq.fu_full::SimdReduceAdd                0                       # attempts to use FU when none available
system.cpu.iq.fu_full::SimdReduceAlu                0                       # attempts to use FU when none available
system.cpu.iq.fu_full::SimdReduceCmp                0                       # attempts to use FU when none available
system.cpu.iq.fu_full::SimdFloatReduceAdd            0                       # attempts to use FU when none available
system.cpu.iq.fu_full::SimdFloatReduceCmp            0                       # attempts to use FU when none available
system.cpu.iq.fu_full::SimdAes                      0                       # attempts to use FU when none available
system.cpu.iq.fu_full::SimdAesMix                   0                       # attempts to use FU when none available
system.cpu.iq.fu_full::SimdSha1Hash                 0                       # attempts to use FU when none available
system.cpu.iq.fu_full::SimdSha1Hash2                0                       # attempts to use FU when none available
system.cpu.iq.fu_full::SimdSha256Hash               0                       # attempts to use FU when none available
system.cpu.iq.fu_full::SimdSha256Hash2              0                       # attempts to use FU when none available
system.cpu.iq.fu_full::SimdShaSigma2                0                       # attempts to use FU when none available
system.cpu.iq.fu_full::SimdShaSigma3                0                       # attempts to use FU when none available
system.cpu.iq.fu_full::SimdPredAlu                  0                       # attempts to use FU when none available
system.cpu.iq.fu_full::MemRead                      0                       # attempts to use FU when none available
system.cpu.iq.fu_full::MemWrite                     0                       # attempts to use FU when none available
system.cpu.iq.fu_full::FloatMemRead                 0                       # attempts to use FU when none available
system.cpu.iq.fu_full::FloatMemWrite                0                       # attempts to use FU when none available
system.cpu.iq.fu_full::IprAccess                    0                       # attempts to use FU when none available
system.cpu.iq.fu_full::InstPrefetch                 0                       # attempts to use FU when none available
system.cpu.iq.int_alu_accesses                8596716                       # Number of integer alu accesses
system.cpu.iq.int_inst_queue_reads           21831011                       # Number of integer instruction queue reads
system.cpu.iq.int_inst_queue_wakeup_accesses      8560425                       # Number of integer instruction queue wakeup accesses
system.cpu.iq.int_inst_queue_writes          10164061                       # Number of integer instruction queue writes
system.cpu.iq.iqInstsAdded                    9291615                       # Number of instructions added to the IQ (excludes non-spec)
system.cpu.iq.iqInstsIssued                   8882813                       # Number of instructions issued
system.cpu.iq.iqNonSpecInstsAdded                1135                       # Number of non-speculative instructions added to the IQ
system.cpu.iq.iqSquashedInstsExamined         1156043                       # Number of squashed instructions iterated over during squash; mainly for profiling
system.cpu.iq.iqSquashedInstsIssued             23700                       # Number of squashed instructions issued
system.cpu.iq.iqSquashedNonSpecRemoved            387                       # Number of squashed non-spec instructions that were removed
system.cpu.iq.iqSquashedOperandsExamined      1710832                       # Number of squashed operands that are examined and possibly removed from graph
system.cpu.iq.issued_per_cycle::samples       4525948                       # Number of insts issued each cycle
system.cpu.iq.issued_per_cycle::mean         1.962641                       # Number of insts issued each cycle
system.cpu.iq.issued_per_cycle::stdev        1.602167                       # Number of insts issued each cycle
system.cpu.iq.issued_per_cycle::underflows            0      0.00%      0.00% # Number of insts issued each cycle
system.cpu.iq.issued_per_cycle::0             1417463     31.32%     31.32% # Number of insts issued each cycle
system.cpu.iq.issued_per_cycle::1              472642     10.44%     41.76% # Number of insts issued each cycle
system.cpu.iq.issued_per_cycle::2              668942     14.78%     56.54% # Number of insts issued each cycle
system.cpu.iq.issued_per_cycle::3              795317     17.57%     74.11% # Number of insts issued each cycle
system.cpu.iq.issued_per_cycle::4             1171584     25.89%    100.00% # Number of insts issued each cycle
system.cpu.iq.issued_per_cycle::overflows            0      0.00%    100.00% # Number of insts issued each cycle
system.cpu.iq.issued_per_cycle::min_value            0                       # Number of insts issued each cycle
system.cpu.iq.issued_per_cycle::max_value            4                       # Number of insts issued each cycle
system.cpu.iq.issued_per_cycle::total         4525948                       # Number of insts issued each cycle
system.cpu.iq.rate                           1.893284                       # Inst issue rate
system.cpu.iq.vec_alu_accesses                      0                       # Number of vector alu accesses
system.cpu.iq.vec_inst_queue_reads                  0                       # Number of vector instruction queue reads
system.cpu.iq.vec_inst_queue_wakeup_accesses            0                       # Number of vector instruction queue wakeup accesses
system.cpu.iq.vec_inst_queue_writes                 0                       # Number of vector instruction queue writes
system.cpu.itb.rdAccesses                           0                       # TLB accesses on read requests
system.cpu.itb.rdMisses                             0                       # TLB misses on read requests
system.cpu.itb.wrAccesses                      666585                       # TLB accesses on write requests
system.cpu.itb.wrMisses                           386                       # TLB misses on write requests
system.cpu.memDep0.conflictingLoads             35755                       # Number of conflicting loads.
system.cpu.memDep0.conflictingStores             7738                       # Number of conflicting stores.
system.cpu.memDep0.insertedLoads              1192174                       # Number of loads inserted to the mem dependence unit.
system.cpu.memDep0.insertedStores              573363                       # Number of stores inserted to the mem dependence unit.
system.cpu.misc_regfile_reads                 3499195                       # number of misc regfile reads
system.cpu.misc_regfile_writes                    684                       # number of misc regfile writes
system.cpu.numCycles                          4691748                       # number of cpu cycles simulated
system.cpu.numWorkItemsCompleted                    0                       # number of work items this cpu completed
system.cpu.numWorkItemsStarted                      0                       # number of work items this cpu started
system.cpu.process.numSyscalls                     63                       # Number of system calls
system.cpu.rename.BlockCycles                  901200                       # Number of cycles rename is blocking
system.cpu.rename.CommittedMaps              10199653                       # Number of HB maps that are committed
system.cpu.rename.FullRegisterEvents              187                       # Number of times there has been no free registers
system.cpu.rename.IQFullEvents                  57023                       # Number of times rename has blocked due to IQ full
system.cpu.rename.IdleCycles                   816626                       # Number of cycles rename is idle
system.cpu.rename.LQFullEvents                  14509                       # Number of times rename has blocked due to LQ full
system.cpu.rename.ROBFullEvents                  4102                       # Number of times rename has blocked due to ROB full
system.cpu.rename.RenameLookups              24528914                       # Number of register rename lookups that rename has made
system.cpu.rename.RenamedInsts                9502235                       # Number of instructions processed by rename
system.cpu.rename.RenamedOperands            11966756                       # Number of destination operands rename has renamed
system.cpu.rename.RunCycles                   2557927                       # Number of cycles rename is running
system.cpu.rename.SQFullEvents                  79169                       # Number of times rename has blocked due to SQ full
system.cpu.rename.SquashCycles                  36649                       # Number of cycles rename is squashing
system.cpu.rename.UnblockCycles                193622                       # Number of cycles rename is unblocking
system.cpu.rename.UndoneMaps                  1767080                       # Number of HB maps that are undone due to squashing
system.cpu.rename.fp_rename_lookups            415248                       # Number of floating rename lookups
system.cpu.rename.int_rename_lookups         14709193                       # Number of integer rename lookups
system.cpu.rename.serializeStallCycles          19924                       # count of cycles rename stalled for serializing inst
system.cpu.rename.serializingInsts                888                       # count of serializing insts renamed
system.cpu.rename.skidInsts                    238053                       # count of insts added to the skid buffer
system.cpu.rename.tempSerializingInsts            939                       # count of temporary serializing insts renamed
system.cpu.rob.rob_reads                     12204480                       # The number of ROB reads
system.cpu.rob.rob_writes                    18900656                       # The number of ROB writes
system.cpu.timesIdled                            1652                       # Number of times that the entire CPU went into an idle state and unscheduled itself
system.l2bus.snoop_filter.hit_multi_requests            9                       # Number of requests hitting in the snoop filter with multiple (>1) holders of the requested data.
system.l2bus.snoop_filter.hit_multi_snoops            0                       # Number of snoops hitting in the snoop filter with multiple (>1) holders of the requested data.
system.l2bus.snoop_filter.hit_single_requests        18863                       # Number of requests hitting in the snoop filter with a single holder of the requested data.
system.l2bus.snoop_filter.hit_single_snoops          442                       # Number of snoops hitting in the snoop filter with a single holder of the requested data.
system.l2bus.snoop_filter.tot_requests          39006                       # Total number of requests made to the snoop filter.
system.l2bus.snoop_filter.tot_snoops              442                       # Total number of snoops made to the snoop filter.
system.l2cache.prefetcher.num_hwpf_issued          707                       # number of hwpf issued
system.l2cache.prefetcher.pfBufferHit               0                       # number of redundant prefetches already in prefetch queue
system.l2cache.prefetcher.pfIdentified            707                       # number of prefetch candidates identified
system.l2cache.prefetcher.pfInCache                 0                       # number of redundant prefetches already in cache/mshr dropped
system.l2cache.prefetcher.pfRemovedFull             0                       # number of prefetches dropped due to prefetch queue size
system.l2cache.prefetcher.pfSpanPage               97                       # number of prefetches that crossed the page
system.membus.snoop_filter.hit_multi_requests            0                       # Number of requests hitting in the snoop filter with multiple (>1) holders of the requested data.
system.membus.snoop_filter.hit_multi_snoops            0                       # Number of snoops hitting in the snoop filter with multiple (>1) holders of the requested data.
system.membus.snoop_filter.hit_single_requests         9659                       # Number of requests hitting in the snoop filter with a single holder of the requested data.
system.membus.snoop_filter.hit_single_snoops            0                       # Number of snoops hitting in the snoop filter with a single holder of the requested data.
system.membus.snoop_filter.tot_requests         23443                       # Total number of requests made to the snoop filter.
system.membus.snoop_filter.tot_snoops               0                       # Total number of snoops made to the snoop filter.
system.membus.pwrStateResidencyTicks::UNDEFINED   1876698800                       # Cumulative time (in ticks) in various power states
system.membus.trans_dist::ReadResp              12265                       # Transaction distribution
system.membus.trans_dist::WritebackDirty         1360                       # Transaction distribution
system.membus.trans_dist::CleanEvict             8299                       # Transaction distribution
system.membus.trans_dist::ReadExReq              1519                       # Transaction distribution
system.membus.trans_dist::ReadExResp             1519                       # Transaction distribution
system.membus.trans_dist::ReadSharedReq         12265                       # Transaction distribution
system.membus.pkt_count_system.l2cache.mem_side::system.mem_ctrl.port        37227                       # Packet count per connected master and slave (bytes)
system.membus.pkt_count_system.l2cache.mem_side::total        37227                       # Packet count per connected master and slave (bytes)
system.membus.pkt_count::total                  37227                       # Packet count per connected master and slave (bytes)
system.membus.pkt_size_system.l2cache.mem_side::system.mem_ctrl.port       969216                       # Cumulative packet size per connected master and slave (bytes)
system.membus.pkt_size_system.l2cache.mem_side::total       969216                       # Cumulative packet size per connected master and slave (bytes)
system.membus.pkt_size::total                  969216                       # Cumulative packet size per connected master and slave (bytes)
system.membus.snoops                                0                       # Total snoops (count)
system.membus.snoopTraffic                          0                       # Total snoop traffic (bytes)
system.membus.snoop_fanout::samples             13784                       # Request fanout histogram
system.membus.snoop_fanout::mean                    0                       # Request fanout histogram
system.membus.snoop_fanout::stdev                   0                       # Request fanout histogram
system.membus.snoop_fanout::underflows              0      0.00%      0.00% # Request fanout histogram
system.membus.snoop_fanout::0                   13784    100.00%    100.00% # Request fanout histogram
system.membus.snoop_fanout::1                       0      0.00%    100.00% # Request fanout histogram
system.membus.snoop_fanout::overflows               0      0.00%    100.00% # Request fanout histogram
system.membus.snoop_fanout::min_value               0                       # Request fanout histogram
system.membus.snoop_fanout::max_value               0                       # Request fanout histogram
system.membus.snoop_fanout::total               13784                       # Request fanout histogram
system.membus.reqLayer2.occupancy            11586685                       # Layer occupancy (ticks)
system.membus.reqLayer2.utilization               0.6                       # Layer utilization (%)
system.membus.respLayer0.occupancy           29905615                       # Layer occupancy (ticks)
system.membus.respLayer0.utilization              1.6                       # Layer utilization (%)
system.l2bus.pwrStateResidencyTicks::UNDEFINED   1876698800                       # Cumulative time (in ticks) in various power states
system.l2bus.trans_dist::ReadResp               17855                       # Transaction distribution
system.l2bus.trans_dist::WritebackDirty          4307                       # Transaction distribution
system.l2bus.trans_dist::CleanEvict             24305                       # Transaction distribution
system.l2bus.trans_dist::HardPFReq                990                       # Transaction distribution
system.l2bus.trans_dist::ReadExReq               2288                       # Transaction distribution
system.l2bus.trans_dist::ReadExResp              2288                       # Transaction distribution
system.l2bus.trans_dist::ReadSharedReq          17855                       # Transaction distribution
system.l2bus.pkt_count_system.cpu.icache.mem_side::system.l2cache.cpu_side         8692                       # Packet count per connected master and slave (bytes)
system.l2bus.pkt_count_system.cpu.dcache.mem_side::system.l2cache.cpu_side        50456                       # Packet count per connected master and slave (bytes)
system.l2bus.pkt_count::total                   59148                       # Packet count per connected master and slave (bytes)
system.l2bus.pkt_size_system.cpu.icache.mem_side::system.l2cache.cpu_side       190848                       # Cumulative packet size per connected master and slave (bytes)
system.l2bus.pkt_size_system.cpu.dcache.mem_side::system.l2cache.cpu_side      1286848                       # Cumulative packet size per connected master and slave (bytes)
system.l2bus.pkt_size::total                  1477696                       # Cumulative packet size per connected master and slave (bytes)
system.l2bus.snoops                             10740                       # Total snoops (count)
system.l2bus.snoopTraffic                       87104                       # Total snoop traffic (bytes)
system.l2bus.snoop_fanout::samples              30882                       # Request fanout histogram
system.l2bus.snoop_fanout::mean              0.014604                       # Request fanout histogram
system.l2bus.snoop_fanout::stdev             0.119963                       # Request fanout histogram
system.l2bus.snoop_fanout::underflows               0      0.00%      0.00% # Request fanout histogram
system.l2bus.snoop_fanout::0                    30431     98.54%     98.54% # Request fanout histogram
system.l2bus.snoop_fanout::1                      451      1.46%    100.00% # Request fanout histogram
system.l2bus.snoop_fanout::2                        0      0.00%    100.00% # Request fanout histogram
system.l2bus.snoop_fanout::overflows                0      0.00%    100.00% # Request fanout histogram
system.l2bus.snoop_fanout::min_value                0                       # Request fanout histogram
system.l2bus.snoop_fanout::max_value                1                       # Request fanout histogram
system.l2bus.snoop_fanout::total                30882                       # Request fanout histogram
system.l2bus.respLayer1.occupancy            20593596                       # Layer occupancy (ticks)
system.l2bus.respLayer1.utilization               1.1                       # Layer utilization (%)
system.l2bus.reqLayer0.occupancy             19427354                       # Layer occupancy (ticks)
system.l2bus.reqLayer0.utilization                1.0                       # Layer utilization (%)
system.l2bus.respLayer0.occupancy             3579999                       # Layer occupancy (ticks)
system.l2bus.respLayer0.utilization               0.2                       # Layer utilization (%)
system.clk_domain.clock                           400                       # Clock period in ticks
system.clk_domain.voltage_domain.voltage            1                       # Voltage in Volts
system.cpu.pwrStateResidencyTicks::ON      1876698800                       # Cumulative time (in ticks) in various power states
system.cpu.icache.pwrStateResidencyTicks::UNDEFINED   1876698800                       # Cumulative time (in ticks) in various power states
system.cpu.icache.demand_hits::.cpu.inst       662760                       # number of demand (read+write) hits
system.cpu.icache.demand_hits::total           662760                       # number of demand (read+write) hits
system.cpu.icache.overall_hits::.cpu.inst       662760                       # number of overall hits
system.cpu.icache.overall_hits::total          662760                       # number of overall hits
system.cpu.icache.demand_misses::.cpu.inst         3691                       # number of demand (read+write) misses
system.cpu.icache.demand_misses::total           3691                       # number of demand (read+write) misses
system.cpu.icache.overall_misses::.cpu.inst         3691                       # number of overall misses
system.cpu.icache.overall_misses::total          3691                       # number of overall misses
system.cpu.icache.demand_miss_latency::.cpu.inst    180655200                       # number of demand (read+write) miss cycles
system.cpu.icache.demand_miss_latency::total    180655200                       # number of demand (read+write) miss cycles
system.cpu.icache.overall_miss_latency::.cpu.inst    180655200                       # number of overall miss cycles
system.cpu.icache.overall_miss_latency::total    180655200                       # number of overall miss cycles
system.cpu.icache.demand_accesses::.cpu.inst       666451                       # number of demand (read+write) accesses
system.cpu.icache.demand_accesses::total       666451                       # number of demand (read+write) accesses
system.cpu.icache.overall_accesses::.cpu.inst       666451                       # number of overall (read+write) accesses
system.cpu.icache.overall_accesses::total       666451                       # number of overall (read+write) accesses
system.cpu.icache.demand_miss_rate::.cpu.inst     0.005538                       # miss rate for demand accesses
system.cpu.icache.demand_miss_rate::total     0.005538                       # miss rate for demand accesses
system.cpu.icache.overall_miss_rate::.cpu.inst     0.005538                       # miss rate for overall accesses
system.cpu.icache.overall_miss_rate::total     0.005538                       # miss rate for overall accesses
system.cpu.icache.demand_avg_miss_latency::.cpu.inst 48944.784611                       # average overall miss latency
system.cpu.icache.demand_avg_miss_latency::total 48944.784611                       # average overall miss latency
system.cpu.icache.overall_avg_miss_latency::.cpu.inst 48944.784611                       # average overall miss latency
system.cpu.icache.overall_avg_miss_latency::total 48944.784611                       # average overall miss latency
system.cpu.icache.blocked_cycles::no_mshrs          149                       # number of cycles access was blocked
system.cpu.icache.blocked_cycles::no_targets            0                       # number of cycles access was blocked
system.cpu.icache.blocked::no_mshrs                 4                       # number of cycles access was blocked
system.cpu.icache.blocked::no_targets               0                       # number of cycles access was blocked
system.cpu.icache.avg_blocked_cycles::no_mshrs    37.250000                       # average number of cycles each access was blocked
system.cpu.icache.avg_blocked_cycles::no_targets          nan                       # average number of cycles each access was blocked
system.cpu.icache.demand_mshr_hits::.cpu.inst          708                       # number of demand (read+write) MSHR hits
system.cpu.icache.demand_mshr_hits::total          708                       # number of demand (read+write) MSHR hits
system.cpu.icache.overall_mshr_hits::.cpu.inst          708                       # number of overall MSHR hits
system.cpu.icache.overall_mshr_hits::total          708                       # number of overall MSHR hits
system.cpu.icache.demand_mshr_misses::.cpu.inst         2983                       # number of demand (read+write) MSHR misses
system.cpu.icache.demand_mshr_misses::total         2983                       # number of demand (read+write) MSHR misses
system.cpu.icache.overall_mshr_misses::.cpu.inst         2983                       # number of overall MSHR misses
system.cpu.icache.overall_mshr_misses::total         2983                       # number of overall MSHR misses
system.cpu.icache.demand_mshr_miss_latency::.cpu.inst    145845200                       # number of demand (read+write) MSHR miss cycles
system.cpu.icache.demand_mshr_miss_latency::total    145845200                       # number of demand (read+write) MSHR miss cycles
system.cpu.icache.overall_mshr_miss_latency::.cpu.inst    145845200                       # number of overall MSHR miss cycles
system.cpu.icache.overall_mshr_miss_latency::total    145845200                       # number of overall MSHR miss cycles
system.cpu.icache.demand_mshr_miss_rate::.cpu.inst     0.004476                       # mshr miss rate for demand accesses
system.cpu.icache.demand_mshr_miss_rate::total     0.004476                       # mshr miss rate for demand accesses
system.cpu.icache.overall_mshr_miss_rate::.cpu.inst     0.004476                       # mshr miss rate for overall accesses
system.cpu.icache.overall_mshr_miss_rate::total     0.004476                       # mshr miss rate for overall accesses
system.cpu.icache.demand_avg_mshr_miss_latency::.cpu.inst 48892.122025                       # average overall mshr miss latency
system.cpu.icache.demand_avg_mshr_miss_latency::total 48892.122025                       # average overall mshr miss latency
system.cpu.icache.overall_avg_mshr_miss_latency::.cpu.inst 48892.122025                       # average overall mshr miss latency
system.cpu.icache.overall_avg_mshr_miss_latency::total 48892.122025                       # average overall mshr miss latency
system.cpu.icache.replacements                   2727                       # number of replacements
system.cpu.icache.ReadReq_hits::.cpu.inst       662760                       # number of ReadReq hits
system.cpu.icache.ReadReq_hits::total          662760                       # number of ReadReq hits
system.cpu.icache.ReadReq_misses::.cpu.inst         3691                       # number of ReadReq misses
system.cpu.icache.ReadReq_misses::total          3691                       # number of ReadReq misses
system.cpu.icache.ReadReq_miss_latency::.cpu.inst    180655200                       # number of ReadReq miss cycles
system.cpu.icache.ReadReq_miss_latency::total    180655200                       # number of ReadReq miss cycles
system.cpu.icache.ReadReq_accesses::.cpu.inst       666451                       # number of ReadReq accesses(hits+misses)
system.cpu.icache.ReadReq_accesses::total       666451                       # number of ReadReq accesses(hits+misses)
system.cpu.icache.ReadReq_miss_rate::.cpu.inst     0.005538                       # miss rate for ReadReq accesses
system.cpu.icache.ReadReq_miss_rate::total     0.005538                       # miss rate for ReadReq accesses
system.cpu.icache.ReadReq_avg_miss_latency::.cpu.inst 48944.784611                       # average ReadReq miss latency
system.cpu.icache.ReadReq_avg_miss_latency::total 48944.784611                       # average ReadReq miss latency
system.cpu.icache.ReadReq_mshr_hits::.cpu.inst          708                       # number of ReadReq MSHR hits
system.cpu.icache.ReadReq_mshr_hits::total          708                       # number of ReadReq MSHR hits
system.cpu.icache.ReadReq_mshr_misses::.cpu.inst         2983                       # number of ReadReq MSHR misses
system.cpu.icache.ReadReq_mshr_misses::total         2983                       # number of ReadReq MSHR misses
system.cpu.icache.ReadReq_mshr_miss_latency::.cpu.inst    145845200                       # number of ReadReq MSHR miss cycles
system.cpu.icache.ReadReq_mshr_miss_latency::total    145845200                       # number of ReadReq MSHR miss cycles
system.cpu.icache.ReadReq_mshr_miss_rate::.cpu.inst     0.004476                       # mshr miss rate for ReadReq accesses
system.cpu.icache.ReadReq_mshr_miss_rate::total     0.004476                       # mshr miss rate for ReadReq accesses
system.cpu.icache.ReadReq_avg_mshr_miss_latency::.cpu.inst 48892.122025                       # average ReadReq mshr miss latency
system.cpu.icache.ReadReq_avg_mshr_miss_latency::total 48892.122025                       # average ReadReq mshr miss latency
system.cpu.icache.prefetcher.pwrStateResidencyTicks::UNDEFINED   1876698800                       # Cumulative time (in ticks) in various power states
system.cpu.icache.tags.pwrStateResidencyTicks::UNDEFINED   1876698800                       # Cumulative time (in ticks) in various power states
system.cpu.icache.tags.tagsinuse           254.519396                       # Cycle average of tags in use
system.cpu.icache.tags.total_refs              440569                       # Total number of references to valid blocks.
system.cpu.icache.tags.sampled_refs              2727                       # Sample count of references to valid blocks.
system.cpu.icache.tags.avg_refs            161.558122                       # Average number of references to valid blocks.
system.cpu.icache.tags.warmup_cycle             66400                       # Cycle when the warmup percentage was hit.
system.cpu.icache.tags.occ_blocks::.cpu.inst   254.519396                       # Average occupied blocks per requestor
system.cpu.icache.tags.occ_percent::.cpu.inst     0.994216                       # Average percentage of cache occupancy
system.cpu.icache.tags.occ_percent::total     0.994216                       # Average percentage of cache occupancy
system.cpu.icache.tags.occ_task_id_blocks::1024          256                       # Occupied blocks per task id
system.cpu.icache.tags.age_task_id_blocks_1024::0          108                       # Occupied blocks per task id
system.cpu.icache.tags.age_task_id_blocks_1024::1            6                       # Occupied blocks per task id
system.cpu.icache.tags.age_task_id_blocks_1024::2          140                       # Occupied blocks per task id
system.cpu.icache.tags.age_task_id_blocks_1024::3            2                       # Occupied blocks per task id
system.cpu.icache.tags.occ_task_id_percent::1024            1                       # Percentage of cache occupancy per task id
system.cpu.icache.tags.tag_accesses           1335885                       # Number of tag accesses
system.cpu.icache.tags.data_accesses          1335885                       # Number of data accesses
system.cpu.dtb.walker.pwrStateResidencyTicks::UNDEFINED   1876698800                       # Cumulative time (in ticks) in various power states
system.cpu.interrupts.clk_domain.clock           6400                       # Clock period in ticks
system.cpu.itb.walker.pwrStateResidencyTicks::UNDEFINED   1876698800                       # Cumulative time (in ticks) in various power states
system.cpu.dcache.pwrStateResidencyTicks::UNDEFINED   1876698800                       # Cumulative time (in ticks) in various power states
system.cpu.dcache.demand_hits::.cpu.data      1568704                       # number of demand (read+write) hits
system.cpu.dcache.demand_hits::total          1568704                       # number of demand (read+write) hits
system.cpu.dcache.overall_hits::.cpu.data      1568704                       # number of overall hits
system.cpu.dcache.overall_hits::total         1568704                       # number of overall hits
system.cpu.dcache.demand_misses::.cpu.data        34456                       # number of demand (read+write) misses
system.cpu.dcache.demand_misses::total          34456                       # number of demand (read+write) misses
system.cpu.dcache.overall_misses::.cpu.data        34456                       # number of overall misses
system.cpu.dcache.overall_misses::total         34456                       # number of overall misses
system.cpu.dcache.demand_miss_latency::.cpu.data   1677034000                       # number of demand (read+write) miss cycles
system.cpu.dcache.demand_miss_latency::total   1677034000                       # number of demand (read+write) miss cycles
system.cpu.dcache.overall_miss_latency::.cpu.data   1677034000                       # number of overall miss cycles
system.cpu.dcache.overall_miss_latency::total   1677034000                       # number of overall miss cycles
system.cpu.dcache.demand_accesses::.cpu.data      1603160                       # number of demand (read+write) accesses
system.cpu.dcache.demand_accesses::total      1603160                       # number of demand (read+write) accesses
system.cpu.dcache.overall_accesses::.cpu.data      1603160                       # number of overall (read+write) accesses
system.cpu.dcache.overall_accesses::total      1603160                       # number of overall (read+write) accesses
system.cpu.dcache.demand_miss_rate::.cpu.data     0.021493                       # miss rate for demand accesses
system.cpu.dcache.demand_miss_rate::total     0.021493                       # miss rate for demand accesses
system.cpu.dcache.overall_miss_rate::.cpu.data     0.021493                       # miss rate for overall accesses
system.cpu.dcache.overall_miss_rate::total     0.021493                       # miss rate for overall accesses
system.cpu.dcache.demand_avg_miss_latency::.cpu.data 48671.755282                       # average overall miss latency
system.cpu.dcache.demand_avg_miss_latency::total 48671.755282                       # average overall miss latency
system.cpu.dcache.overall_avg_miss_latency::.cpu.data 48671.755282                       # average overall miss latency
system.cpu.dcache.overall_avg_miss_latency::total 48671.755282                       # average overall miss latency
system.cpu.dcache.blocked_cycles::no_mshrs        30590                       # number of cycles access was blocked
system.cpu.dcache.blocked_cycles::no_targets          122                       # number of cycles access was blocked
system.cpu.dcache.blocked::no_mshrs               750                       # number of cycles access was blocked
system.cpu.dcache.blocked::no_targets               2                       # number of cycles access was blocked
system.cpu.dcache.avg_blocked_cycles::no_mshrs    40.786667                       # average number of cycles each access was blocked
system.cpu.dcache.avg_blocked_cycles::no_targets           61                       # average number of cycles each access was blocked
system.cpu.dcache.unused_prefetches              1778                       # number of HardPF blocks evicted w/o reference
system.cpu.dcache.writebacks::.writebacks         2947                       # number of writebacks
system.cpu.dcache.writebacks::total              2947                       # number of writebacks
system.cpu.dcache.demand_mshr_hits::.cpu.data        21734                       # number of demand (read+write) MSHR hits
system.cpu.dcache.demand_mshr_hits::total        21734                       # number of demand (read+write) MSHR hits
system.cpu.dcache.overall_mshr_hits::.cpu.data        21734                       # number of overall MSHR hits
system.cpu.dcache.overall_mshr_hits::total        21734                       # number of overall MSHR hits
system.cpu.dcache.demand_mshr_misses::.cpu.data        12722                       # number of demand (read+write) MSHR misses
system.cpu.dcache.demand_mshr_misses::total        12722                       # number of demand (read+write) MSHR misses
system.cpu.dcache.overall_mshr_misses::.cpu.data        12722                       # number of overall MSHR misses
system.cpu.dcache.overall_mshr_misses::.cpu.dcache.prefetcher         4438                       # number of overall MSHR misses
system.cpu.dcache.overall_mshr_misses::total        17160                       # number of overall MSHR misses
system.cpu.dcache.demand_mshr_miss_latency::.cpu.data    585008800                       # number of demand (read+write) MSHR miss cycles
system.cpu.dcache.demand_mshr_miss_latency::total    585008800                       # number of demand (read+write) MSHR miss cycles
system.cpu.dcache.overall_mshr_miss_latency::.cpu.data    585008800                       # number of overall MSHR miss cycles
system.cpu.dcache.overall_mshr_miss_latency::.cpu.dcache.prefetcher    254720059                       # number of overall MSHR miss cycles
system.cpu.dcache.overall_mshr_miss_latency::total    839728859                       # number of overall MSHR miss cycles
system.cpu.dcache.demand_mshr_miss_rate::.cpu.data     0.007936                       # mshr miss rate for demand accesses
system.cpu.dcache.demand_mshr_miss_rate::total     0.007936                       # mshr miss rate for demand accesses
system.cpu.dcache.overall_mshr_miss_rate::.cpu.data     0.007936                       # mshr miss rate for overall accesses
system.cpu.dcache.overall_mshr_miss_rate::.cpu.dcache.prefetcher          inf                       # mshr miss rate for overall accesses
system.cpu.dcache.overall_mshr_miss_rate::total     0.010704                       # mshr miss rate for overall accesses
system.cpu.dcache.demand_avg_mshr_miss_latency::.cpu.data 45984.027669                       # average overall mshr miss latency
system.cpu.dcache.demand_avg_mshr_miss_latency::total 45984.027669                       # average overall mshr miss latency
system.cpu.dcache.overall_avg_mshr_miss_latency::.cpu.data 45984.027669                       # average overall mshr miss latency
system.cpu.dcache.overall_avg_mshr_miss_latency::.cpu.dcache.prefetcher 57395.236368                       # average overall mshr miss latency
system.cpu.dcache.overall_avg_mshr_miss_latency::total 48935.248193                       # average overall mshr miss latency
system.cpu.dcache.replacements                  16136                       # number of replacements
system.cpu.dcache.ReadReq_hits::.cpu.data      1044695                       # number of ReadReq hits
system.cpu.dcache.ReadReq_hits::total         1044695                       # number of ReadReq hits
system.cpu.dcache.ReadReq_misses::.cpu.data        32126                       # number of ReadReq misses
system.cpu.dcache.ReadReq_misses::total         32126                       # number of ReadReq misses
system.cpu.dcache.ReadReq_miss_latency::.cpu.data   1559500400                       # number of ReadReq miss cycles
system.cpu.dcache.ReadReq_miss_latency::total   1559500400                       # number of ReadReq miss cycles
system.cpu.dcache.ReadReq_accesses::.cpu.data      1076821                       # number of ReadReq accesses(hits+misses)
system.cpu.dcache.ReadReq_accesses::total      1076821                       # number of ReadReq accesses(hits+misses)
system.cpu.dcache.ReadReq_miss_rate::.cpu.data     0.029834                       # miss rate for ReadReq accesses
system.cpu.dcache.ReadReq_miss_rate::total     0.029834                       # miss rate for ReadReq accesses
system.cpu.dcache.ReadReq_avg_miss_latency::.cpu.data 48543.248459                       # average ReadReq miss latency
system.cpu.dcache.ReadReq_avg_miss_latency::total 48543.248459                       # average ReadReq miss latency
system.cpu.dcache.ReadReq_mshr_hits::.cpu.data        21692                       # number of ReadReq MSHR hits
system.cpu.dcache.ReadReq_mshr_hits::total        21692                       # number of ReadReq MSHR hits
system.cpu.dcache.ReadReq_mshr_misses::.cpu.data        10434                       # number of ReadReq MSHR misses
system.cpu.dcache.ReadReq_mshr_misses::total        10434                       # number of ReadReq MSHR misses
system.cpu.dcache.ReadReq_mshr_miss_latency::.cpu.data    471196800                       # number of ReadReq MSHR miss cycles
system.cpu.dcache.ReadReq_mshr_miss_latency::total    471196800                       # number of ReadReq MSHR miss cycles
system.cpu.dcache.ReadReq_mshr_miss_rate::.cpu.data     0.009690                       # mshr miss rate for ReadReq accesses
system.cpu.dcache.ReadReq_mshr_miss_rate::total     0.009690                       # mshr miss rate for ReadReq accesses
system.cpu.dcache.ReadReq_avg_mshr_miss_latency::.cpu.data 45159.746981                       # average ReadReq mshr miss latency
system.cpu.dcache.ReadReq_avg_mshr_miss_latency::total 45159.746981                       # average ReadReq mshr miss latency
system.cpu.dcache.WriteReq_hits::.cpu.data       524009                       # number of WriteReq hits
system.cpu.dcache.WriteReq_hits::total         524009                       # number of WriteReq hits
system.cpu.dcache.WriteReq_misses::.cpu.data         2330                       # number of WriteReq misses
system.cpu.dcache.WriteReq_misses::total         2330                       # number of WriteReq misses
system.cpu.dcache.WriteReq_miss_latency::.cpu.data    117533600                       # number of WriteReq miss cycles
system.cpu.dcache.WriteReq_miss_latency::total    117533600                       # number of WriteReq miss cycles
system.cpu.dcache.WriteReq_accesses::.cpu.data       526339                       # number of WriteReq accesses(hits+misses)
system.cpu.dcache.WriteReq_accesses::total       526339                       # number of WriteReq accesses(hits+misses)
system.cpu.dcache.WriteReq_miss_rate::.cpu.data     0.004427                       # miss rate for WriteReq accesses
system.cpu.dcache.WriteReq_miss_rate::total     0.004427                       # miss rate for WriteReq accesses
system.cpu.dcache.WriteReq_avg_miss_latency::.cpu.data 50443.605150                       # average WriteReq miss latency
system.cpu.dcache.WriteReq_avg_miss_latency::total 50443.605150                       # average WriteReq miss latency
system.cpu.dcache.WriteReq_mshr_hits::.cpu.data           42                       # number of WriteReq MSHR hits
system.cpu.dcache.WriteReq_mshr_hits::total           42                       # number of WriteReq MSHR hits
system.cpu.dcache.WriteReq_mshr_misses::.cpu.data         2288                       # number of WriteReq MSHR misses
system.cpu.dcache.WriteReq_mshr_misses::total         2288                       # number of WriteReq MSHR misses
system.cpu.dcache.WriteReq_mshr_miss_latency::.cpu.data    113812000                       # number of WriteReq MSHR miss cycles
[...]
system.l2cache.demand_mshr_misses::.cpu.data          142                       # number of demand (read+write) MSHR misses
system.l2cache.demand_mshr_misses::.cpu.dcache.prefetcher           38                       # number of demand (read+write) MSHR misses
system.l2cache.demand_mshr_misses::total          430                       # number of demand (read+write) MSHR misses
system.l2cache.overall_mshr_misses::.cpu.inst          250                       # number of overall MSHR misses
system.l2cache.overall_mshr_misses::.cpu.data          142                       # number of overall MSHR misses
system.l2cache.overall_mshr_misses::.cpu.dcache.prefetcher           38                       # number of overall MSHR misses
system.l2cache.overall_mshr_misses::total          430                       # number of overall MSHR misses
system.l2cache.demand_mshr_miss_latency::.cpu.inst     14827600                       # number of demand (read+write) MSHR miss cycles
system.l2cache.demand_mshr_miss_latency::.cpu.data      8590400                       # number of demand (read+write) MSHR miss cycles
system.l2cache.demand_mshr_miss_latency::.cpu.dcache.prefetcher      2227164                       # number of demand (read+write) MSHR miss cycles
system.l2cache.demand_mshr_miss_latency::total     25645164                       # number of demand (read+write) MSHR miss cycles
system.l2cache.overall_mshr_miss_latency::.cpu.inst     14827600                       # number of overall MSHR miss cycles
system.l2cache.overall_mshr_miss_latency::.cpu.data      8590400                       # number of overall MSHR miss cycles
system.l2cache.overall_mshr_miss_latency::.cpu.dcache.prefetcher      2227164                       # number of overall MSHR miss cycles
system.l2cache.overall_mshr_miss_latency::total     25645164                       # number of overall MSHR miss cycles
system.l2cache.demand_mshr_miss_rate::.cpu.inst     0.401284                       # mshr miss rate for demand accesses
system.l2cache.demand_mshr_miss_rate::.cpu.data     0.327945                       # mshr miss rate for demand accesses
system.l2cache.demand_mshr_miss_rate::.cpu.dcache.prefetcher     0.550725                       # mshr miss rate for demand accesses
system.l2cache.demand_mshr_miss_rate::total     0.382222                       # mshr miss rate for demand accesses
system.l2cache.overall_mshr_miss_rate::.cpu.inst     0.401284                       # mshr miss rate for overall accesses
system.l2cache.overall_mshr_miss_rate::.cpu.data     0.327945                       # mshr miss rate for overall accesses
system.l2cache.overall_mshr_miss_rate::.cpu.dcache.prefetcher     0.550725                       # mshr miss rate for overall accesses
system.l2cache.overall_mshr_miss_rate::total     0.382222                       # mshr miss rate for overall accesses
system.l2cache.demand_avg_mshr_miss_latency::.cpu.inst 59310.400000                       # average overall mshr miss latency
system.l2cache.demand_avg_mshr_miss_latency::.cpu.data 60495.774648                       # average overall mshr miss latency
system.l2cache.demand_avg_mshr_miss_latency::.cpu.dcache.prefetcher 58609.578947                       # average overall mshr miss latency
system.l2cache.demand_avg_mshr_miss_latency::total 59639.916279                       # average overall mshr miss latency
system.l2cache.overall_avg_mshr_miss_latency::.cpu.inst 59310.400000                       # average overall mshr miss latency
system.l2cache.overall_avg_mshr_miss_latency::.cpu.data 60495.774648                       # average overall mshr miss latency
system.l2cache.overall_avg_mshr_miss_latency::.cpu.dcache.prefetcher 58609.578947                       # average overall mshr miss latency
system.l2cache.overall_avg_mshr_miss_latency::total 59639.916279                       # average overall mshr miss latency
system.l2cache.replacements                       440                       # number of replacements
system.l2cache.WritebackDirty_hits::.writebacks          311                       # number of WritebackDirty hits
system.l2cache.WritebackDirty_hits::total          311                       # number of WritebackDirty hits
system.l2cache.WritebackDirty_accesses::.writebacks          311                       # number of WritebackDirty accesses(hits+misses)
system.l2cache.WritebackDirty_accesses::total          311                       # number of WritebackDirty accesses(hits+misses)
system.l2cache.CleanEvict_mshr_misses::.writebacks            7                       # number of CleanEvict MSHR misses
system.l2cache.CleanEvict_mshr_misses::total            7                       # number of CleanEvict MSHR misses
system.l2cache.CleanEvict_mshr_miss_rate::.writebacks          inf                       # mshr miss rate for CleanEvict accesses
system.l2cache.CleanEvict_mshr_miss_rate::total          inf                       # mshr miss rate for CleanEvict accesses
system.l2cache.ReadExReq_hits::.cpu.data          111                       # number of ReadExReq hits
system.l2cache.ReadExReq_hits::total              111                       # number of ReadExReq hits
system.l2cache.ReadExReq_misses::.cpu.data           19                       # number of ReadExReq misses
system.l2cache.ReadExReq_misses::total             19                       # number of ReadExReq misses
system.l2cache.ReadExReq_miss_latency::.cpu.data      1286000                       # number of ReadExReq miss cycles
system.l2cache.ReadExReq_miss_latency::total      1286000                       # number of ReadExReq miss cycles
system.l2cache.ReadExReq_accesses::.cpu.data          130                       # number of ReadExReq accesses(hits+misses)
system.l2cache.ReadExReq_accesses::total          130                       # number of ReadExReq accesses(hits+misses)
system.l2cache.ReadExReq_miss_rate::.cpu.data     0.146154                       # miss rate for ReadExReq accesses
system.l2cache.ReadExReq_miss_rate::total     0.146154                       # miss rate for ReadExReq accesses
system.l2cache.ReadExReq_avg_miss_latency::.cpu.data 67684.210526                       # average ReadExReq miss latency
system.l2cache.ReadExReq_avg_miss_latency::total 67684.210526                       # average ReadExReq miss latency
system.l2cache.ReadExReq_mshr_misses::.cpu.data           19                       # number of ReadExReq MSHR misses
system.l2cache.ReadExReq_mshr_misses::total           19                       # number of ReadExReq MSHR misses
system.l2cache.ReadExReq_mshr_miss_latency::.cpu.data      1134000                       # number of ReadExReq MSHR miss cycles
system.l2cache.ReadExReq_mshr_miss_latency::total      1134000                       # number of ReadExReq MSHR miss cycles
system.l2cache.ReadExReq_mshr_miss_rate::.cpu.data     0.146154                       # mshr miss rate for ReadExReq accesses
system.l2cache.ReadExReq_mshr_miss_rate::total     0.146154                       # mshr miss rate for ReadExReq accesses
system.l2cache.ReadExReq_avg_mshr_miss_latency::.cpu.data 59684.210526                       # average ReadExReq mshr miss latency
system.l2cache.ReadExReq_avg_mshr_miss_latency::total 59684.210526                       # average ReadExReq mshr miss latency
system.l2cache.ReadSharedReq_hits::.cpu.inst          373                       # number of ReadSharedReq hits
system.l2cache.ReadSharedReq_hits::.cpu.data          180                       # number of ReadSharedReq hits
system.l2cache.ReadSharedReq_hits::.cpu.dcache.prefetcher           31                       # number of ReadSharedReq hits
system.l2cache.ReadSharedReq_hits::total          584                       # number of ReadSharedReq hits
system.l2cache.ReadSharedReq_misses::.cpu.inst          250                       # number of ReadSharedReq misses
system.l2cache.ReadSharedReq_misses::.cpu.data          123                       # number of ReadSharedReq misses
system.l2cache.ReadSharedReq_misses::.cpu.dcache.prefetcher           38                       # number of ReadSharedReq misses
system.l2cache.ReadSharedReq_misses::total          411                       # number of ReadSharedReq misses
system.l2cache.ReadSharedReq_miss_latency::.cpu.inst     16819600                       # number of ReadSharedReq miss cycles
system.l2cache.ReadSharedReq_miss_latency::.cpu.data      8440400                       # number of ReadSharedReq miss cycles
system.l2cache.ReadSharedReq_miss_latency::.cpu.dcache.prefetcher      2531164                       # number of ReadSharedReq miss cycles
system.l2cache.ReadSharedReq_miss_latency::total     27791164                       # number of ReadSharedReq miss cycles
system.l2cache.ReadSharedReq_accesses::.cpu.inst          623                       # number of ReadSharedReq accesses(hits+misses)
system.l2cache.ReadSharedReq_accesses::.cpu.data          303                       # number of ReadSharedReq accesses(hits+misses)
system.l2cache.ReadSharedReq_accesses::.cpu.dcache.prefetcher           69                       # number of ReadSharedReq accesses(hits+misses)
system.l2cache.ReadSharedReq_accesses::total          995                       # number of ReadSharedReq accesses(hits+misses)
system.l2cache.ReadSharedReq_miss_rate::.cpu.inst     0.401284                       # miss rate for ReadSharedReq accesses
system.l2cache.ReadSharedReq_miss_rate::.cpu.data     0.405941                       # miss rate for ReadSharedReq accesses
system.l2cache.ReadSharedReq_miss_rate::.cpu.dcache.prefetcher     0.550725                       # miss rate for ReadSharedReq accesses
system.l2cache.ReadSharedReq_miss_rate::total     0.413065                       # miss rate for ReadSharedReq accesses
system.l2cache.ReadSharedReq_avg_miss_latency::.cpu.inst 67278.400000                       # average ReadSharedReq miss latency
system.l2cache.ReadSharedReq_avg_miss_latency::.cpu.data 68621.138211                       # average ReadSharedReq miss latency
system.l2cache.ReadSharedReq_avg_miss_latency::.cpu.dcache.prefetcher 66609.578947                       # average ReadSharedReq miss latency
system.l2cache.ReadSharedReq_avg_miss_latency::total 67618.403893                       # average ReadSharedReq miss latency
system.l2cache.ReadSharedReq_mshr_misses::.cpu.inst          250                       # number of ReadSharedReq MSHR misses
system.l2cache.ReadSharedReq_mshr_misses::.cpu.data          123                       # number of ReadSharedReq MSHR misses
system.l2cache.ReadSharedReq_mshr_misses::.cpu.dcache.prefetcher           38                       # number of ReadSharedReq MSHR misses
system.l2cache.ReadSharedReq_mshr_misses::total          411                       # number of ReadSharedReq MSHR misses
system.l2cache.ReadSharedReq_mshr_miss_latency::.cpu.inst     14827600                       # number of ReadSharedReq MSHR miss cycles
system.l2cache.ReadSharedReq_mshr_miss_latency::.cpu.data      7456400                       # number of ReadSharedReq MSHR miss cycles
system.l2cache.ReadSharedReq_mshr_miss_latency::.cpu.dcache.prefetcher      2227164                       # number of ReadSharedReq MSHR miss cycles
system.l2cache.ReadSharedReq_mshr_miss_latency::total     24511164                       # number of ReadSharedReq MSHR miss cycles
system.l2cache.ReadSharedReq_mshr_miss_rate::.cpu.inst     0.401284                       # mshr miss rate for ReadSharedReq accesses
system.l2cache.ReadSharedReq_mshr_miss_rate::.cpu.data     0.405941                       # mshr miss rate for ReadSharedReq accesses
system.l2cache.ReadSharedReq_mshr_miss_rate::.cpu.dcache.prefetcher     0.550725                       # mshr miss rate for ReadSharedReq accesses
system.l2cache.ReadSharedReq_mshr_miss_rate::total     0.413065                       # mshr miss rate for ReadSharedReq accesses
system.l2cache.ReadSharedReq_avg_mshr_miss_latency::.cpu.inst 59310.400000                       # average ReadSharedReq mshr miss latency
system.l2cache.ReadSharedReq_avg_mshr_miss_latency::.cpu.data 60621.138211                       # average ReadSharedReq mshr miss latency
system.l2cache.ReadSharedReq_avg_mshr_miss_latency::.cpu.dcache.prefetcher 58609.578947                       # average ReadSharedReq mshr miss latency
system.l2cache.ReadSharedReq_avg_mshr_miss_latency::total 59637.868613                       # average ReadSharedReq mshr miss latency
system.l2cache.prefetcher.pwrStateResidencyTicks::UNDEFINED    749149600                       # Cumulative time (in ticks) in various power states
system.l2cache.tags.pwrStateResidencyTicks::UNDEFINED    749149600                       # Cumulative time (in ticks) in various power states
system.l2cache.tags.tagsinuse                    4096                       # Cycle average of tags in use
system.l2cache.tags.total_refs                  14903                       # Total number of references to valid blocks.
system.l2cache.tags.sampled_refs                 4536                       # Sample count of references to valid blocks.
system.l2cache.tags.avg_refs                 3.285494                       # Average number of references to valid blocks.
system.l2cache.tags.warmup_cycle                    0                       # Cycle when the warmup percentage was hit.
system.l2cache.tags.occ_blocks::.writebacks    43.036817                       # Average occupied blocks per requestor
system.l2cache.tags.occ_blocks::.cpu.inst  1087.845111                       # Average occupied blocks per requestor
system.l2cache.tags.occ_blocks::.cpu.data  1867.864968                       # Average occupied blocks per requestor
system.l2cache.tags.occ_blocks::.cpu.dcache.prefetcher   933.349160                       # Average occupied blocks per requestor
system.l2cache.tags.occ_blocks::.l2cache.prefetcher   163.903943                       # Average occupied blocks per requestor
system.l2cache.tags.occ_percent::.writebacks     0.010507                       # Average percentage of cache occupancy
system.l2cache.tags.occ_percent::.cpu.inst     0.265587                       # Average percentage of cache occupancy
system.l2cache.tags.occ_percent::.cpu.data     0.456022                       # Average percentage of cache occupancy
system.l2cache.tags.occ_percent::.cpu.dcache.prefetcher     0.227868                       # Average percentage of cache occupancy
system.l2cache.tags.occ_percent::.l2cache.prefetcher     0.040016                       # Average percentage of cache occupancy
system.l2cache.tags.occ_percent::total       1.000000                       # Average percentage of cache occupancy
system.l2cache.tags.occ_task_id_blocks::1022         1012                       # Occupied blocks per task id
system.l2cache.tags.occ_task_id_blocks::1024         3084                       # Occupied blocks per task id
system.l2cache.tags.age_task_id_blocks_1022::0           12                       # Occupied blocks per task id
system.l2cache.tags.age_task_id_blocks_1022::1            9                       # Occupied blocks per task id
system.l2cache.tags.age_task_id_blocks_1022::2           19                       # Occupied blocks per task id
system.l2cache.tags.age_task_id_blocks_1022::3          972                       # Occupied blocks per task id
system.l2cache.tags.age_task_id_blocks_1024::0          168                       # Occupied blocks per task id
system.l2cache.tags.age_task_id_blocks_1024::1          110                       # Occupied blocks per task id
system.l2cache.tags.age_task_id_blocks_1024::2          122                       # Occupied blocks per task id
system.l2cache.tags.age_task_id_blocks_1024::3         2684                       # Occupied blocks per task id
system.l2cache.tags.occ_task_id_percent::1022     0.247070                       # Percentage of cache occupancy per task id
system.l2cache.tags.occ_task_id_percent::1024     0.752930                       # Percentage of cache occupancy per task id
system.l2cache.tags.tag_accesses                18432                       # Number of tag accesses
system.l2cache.tags.data_accesses               18432                       # Number of data accesses
system.mem_ctrl.pwrStateResidencyTicks::UNDEFINED    749149600                       # Cumulative time (in ticks) in various power states
system.mem_ctrl.bytes_read::.cpu.inst           15936                       # Number of bytes read from this memory
system.mem_ctrl.bytes_read::.cpu.data            9088                       # Number of bytes read from this memory
system.mem_ctrl.bytes_read::.cpu.dcache.prefetcher         2432                       # Number of bytes read from this memory
system.mem_ctrl.bytes_read::total               27456                       # Number of bytes read from this memory
system.mem_ctrl.bytes_inst_read::.cpu.inst        15936                       # Number of instructions bytes read from this memory
system.mem_ctrl.bytes_inst_read::total          15936                       # Number of instructions bytes read from this memory
system.mem_ctrl.bytes_written::.writebacks         1792                       # Number of bytes written to this memory
system.mem_ctrl.bytes_written::total             1792                       # Number of bytes written to this memory
system.mem_ctrl.num_reads::.cpu.inst              249                       # Number of read requests responded to by this memory
system.mem_ctrl.num_reads::.cpu.data              142                       # Number of read requests responded to by this memory
system.mem_ctrl.num_reads::.cpu.dcache.prefetcher           38                       # Number of read requests responded to by this memory
system.mem_ctrl.num_reads::total                  429                       # Number of read requests responded to by this memory
system.mem_ctrl.num_writes::.writebacks            28                       # Number of write requests responded to by this memory
system.mem_ctrl.num_writes::total                  28                       # Number of write requests responded to by this memory
system.mem_ctrl.bw_read::.cpu.inst           21272120                       # Total read bandwidth from this memory (bytes/s)
system.mem_ctrl.bw_read::.cpu.data           12131088                       # Total read bandwidth from this memory (bytes/s)
system.mem_ctrl.bw_read::.cpu.dcache.prefetcher      3246348                       # Total read bandwidth from this memory (bytes/s)
system.mem_ctrl.bw_read::total               36649556                       # Total read bandwidth from this memory (bytes/s)
system.mem_ctrl.bw_inst_read::.cpu.inst      21272120                       # Instruction read bandwidth from this memory (bytes/s)
system.mem_ctrl.bw_inst_read::total          21272120                       # Instruction read bandwidth from this memory (bytes/s)
system.mem_ctrl.bw_write::.writebacks         2392046                       # Write bandwidth from this memory (bytes/s)
system.mem_ctrl.bw_write::total               2392046                       # Write bandwidth from this memory (bytes/s)
system.mem_ctrl.bw_total::.writebacks         2392046                       # Total bandwidth to/from this memory (bytes/s)
system.mem_ctrl.bw_total::.cpu.inst          21272120                       # Total bandwidth to/from this memory (bytes/s)
system.mem_ctrl.bw_total::.cpu.data          12131088                       # Total bandwidth to/from this memory (bytes/s)
system.mem_ctrl.bw_total::.cpu.dcache.prefetcher      3246348                       # Total bandwidth to/from this memory (bytes/s)
system.mem_ctrl.bw_total::total              39041601                       # Total bandwidth to/from this memory (bytes/s)

---------- End Simulation Statistics   ----------
