
---------- Begin Simulation Statistics ----------
final_tick                                 1199711200                       # Number of ticks from beginning of simulation (restored from checkpoints and never reset)
host_inst_rate                                 168407                       # Simulator instruction rate (inst/s)
host_mem_usage                                4408880                       # Number of bytes of host memory used
host_op_rate                                   298573                       # Simulator op (including micro ops) rate (op/s)
host_seconds                                    14.13                       # Real time elapsed on the host
host_tick_rate                               84906415                       # Simulator tick rate (ticks/s)
sim_freq                                 1000000000000                       # Frequency of simulated ticks
sim_insts                                     2379543                       # Number of instructions simulated
sim_ops                                       4218781                       # Number of ops (including micro ops) simulated
sim_seconds                                  0.001200                       # Number of seconds simulated
sim_ticks                                  1199711200                       # Number of ticks simulated
system.cpu.branchPred.BTBCorrect                    0                       # Number of correct BTB predictions (this stat may not work properly.
system.cpu.branchPred.BTBHitPct              0.000000                       # BTB Hit Percentage
system.cpu.branchPred.BTBHits                       0                       # Number of BTB hits
system.cpu.branchPred.BTBLookups               503460                       # Number of BTB lookups
system.cpu.branchPred.RASInCorrect                  8                       # Number of incorrect RAS predictions.
system.cpu.branchPred.condIncorrect             24377                       # Number of conditional branches incorrect
system.cpu.branchPred.condPredicted            525655                       # Number of conditional branches predicted
system.cpu.branchPred.indirectHits             276147                       # Number of indirect target hits.
system.cpu.branchPred.indirectLookups          503460                       # Number of indirect predictor lookups.
system.cpu.branchPred.indirectMisses           227313                       # Number of indirect misses.
system.cpu.branchPred.lookups                  568143                       # Number of BP lookups
system.cpu.branchPred.usedRAS                   19579                       # Number of times the RAS was used to get a target.
system.cpu.branchPredindirectMispredicted        12267                       # Number of mispredicted indirect branches.
system.cpu.cc_regfile_reads                   2653420                       # number of cc regfile reads
system.cpu.cc_regfile_writes                  2069536                       # number of cc regfile writes
system.cpu.commit.amos                              0                       # Number of atomic instructions committed
system.cpu.commit.branchMispredicts             24508                       # The number of times a branch was mispredicted
system.cpu.commit.branches                     422653                       # Number of branches committed
system.cpu.commit.bw_lim_events                709322                       # number cycles where commit BW limit reached
system.cpu.commit.commitNonSpecStalls             864                       # The number of times commit has been forced to stall to communicate backwards
system.cpu.commit.commitSquashedInsts          893367                       # The number of squashed insts skipped by commit
system.cpu.commit.committedInsts              2379543                       # Number of instructions committed
system.cpu.commit.committedOps                4218781                       # Number of ops (including micro ops) committed
system.cpu.commit.committed_per_cycle::samples      2585887                       # Number of insts commited each cycle
system.cpu.commit.committed_per_cycle::mean     1.631464                       # Number of insts commited each cycle
system.cpu.commit.committed_per_cycle::stdev     1.739305                       # Number of insts commited each cycle
system.cpu.commit.committed_per_cycle::underflows            0      0.00%      0.00% # Number of insts commited each cycle
system.cpu.commit.committed_per_cycle::0      1215797     47.02%     47.02% # Number of insts commited each cycle
system.cpu.commit.committed_per_cycle::1       206777      8.00%     55.01% # Number of insts commited each cycle
system.cpu.commit.committed_per_cycle::2       187257      7.24%     62.25% # Number of insts commited each cycle
system.cpu.commit.committed_per_cycle::3       266734     10.31%     72.57% # Number of insts commited each cycle
system.cpu.commit.committed_per_cycle::4       709322     27.43%    100.00% # Number of insts commited each cycle
system.cpu.commit.committed_per_cycle::overflows            0      0.00%    100.00% # Number of insts commited each cycle
system.cpu.commit.committed_per_cycle::min_value            0                       # Number of insts commited each cycle
system.cpu.commit.committed_per_cycle::max_value            4                       # Number of insts commited each cycle
system.cpu.commit.committed_per_cycle::total      2585887                       # Number of insts commited each cycle
system.cpu.commit.fp_insts                      75857                       # Number of committed floating point instructions.
system.cpu.commit.function_calls                17723                       # Number of function calls committed.
system.cpu.commit.int_insts                   4162566                       # Number of committed integer instructions.
system.cpu.commit.loads                        601840                       # Number of loads committed
system.cpu.commit.membars                           1                       # Number of memory barriers committed
system.cpu.commit.op_class_0::No_OpClass        20863      0.49%      0.49% # Class of committed instruction
system.cpu.commit.op_class_0::IntAlu          3291678     78.02%     78.52% # Class of committed instruction
system.cpu.commit.op_class_0::IntMult            1053      0.02%     78.54% # Class of committed instruction
system.cpu.commit.op_class_0::IntDiv            38199      0.91%     79.45% # Class of committed instruction
system.cpu.commit.op_class_0::FloatAdd           2996      0.07%     79.52% # Class of committed instruction
system.cpu.commit.op_class_0::FloatCmp              0      0.00%     79.52% # Class of committed instruction
system.cpu.commit.op_class_0::FloatCvt           1376      0.03%     79.55% # Class of committed instruction
system.cpu.commit.op_class_0::FloatMult             0      0.00%     79.55% # Class of committed instruction
system.cpu.commit.op_class_0::FloatMultAcc            0      0.00%     79.55% # Class of committed instruction
system.cpu.commit.op_class_0::FloatDiv              0      0.00%     79.55% # Class of committed instruction
system.cpu.commit.op_class_0::FloatMisc             0      0.00%     79.55% # Class of committed instruction
system.cpu.commit.op_class_0::FloatSqrt             0      0.00%     79.55% # Class of committed instruction
system.cpu.commit.op_class_0::SimdAdd            6346      0.15%     79.70% # Class of committed instruction
system.cpu.commit.op_class_0::SimdAddAcc            0      0.00%     79.70% # Class of committed instruction
system.cpu.commit.op_class_0::SimdAlu           11423      0.27%     79.97% # Class of committed instruction
system.cpu.commit.op_class_0::SimdCmp               0      0.00%     79.97% # Class of committed instruction
system.cpu.commit.op_class_0::SimdCvt           12434      0.29%     80.27% # Class of committed instruction
system.cpu.commit.op_class_0::SimdMisc           6715      0.16%     80.43% # Class of committed instruction
system.cpu.commit.op_class_0::SimdMult              0      0.00%     80.43% # Class of committed instruction
system.cpu.commit.op_class_0::SimdMultAcc            0      0.00%     80.43% # Class of committed instruction
system.cpu.commit.op_class_0::SimdShift          1297      0.03%     80.46% # Class of committed instruction
system.cpu.commit.op_class_0::SimdShiftAcc            0      0.00%     80.46% # Class of committed instruction
system.cpu.commit.op_class_0::SimdDiv               0      0.00%     80.46% # Class of committed instruction
system.cpu.commit.op_class_0::SimdSqrt              0      0.00%     80.46% # Class of committed instruction
system.cpu.commit.op_class_0::SimdFloatAdd            0      0.00%     80.46% # Class of committed instruction
system.cpu.commit.op_class_0::SimdFloatAlu            0      0.00%     80.46% # Class of committed instruction
system.cpu.commit.op_class_0::SimdFloatCmp            0      0.00%     80.46% # Class of committed instruction
system.cpu.commit.op_class_0::SimdFloatCvt            0      0.00%     80.46% # Class of committed instruction
system.cpu.commit.op_class_0::SimdFloatDiv            0      0.00%     80.46% # Class of committed instruction
system.cpu.commit.op_class_0::SimdFloatMisc            0      0.00%     80.46% # Class of committed instruction
system.cpu.commit.op_class_0::SimdFloatMult            0      0.00%     80.46% # Class of committed instruction
system.cpu.commit.op_class_0::SimdFloatMultAcc            0      0.00%     80.46% # Class of committed instruction
system.cpu.commit.op_class_0::SimdFloatSqrt            0      0.00%     80.46% # Class of committed instruction
system.cpu.commit.op_class_0::SimdReduceAdd            0      0.00%     80.46% # Class of committed instruction
system.cpu.commit.op_class_0::SimdReduceAlu            0      0.00%     80.46% # Class of committed instruction
system.cpu.commit.op_class_0::SimdReduceCmp            0      0.00%     80.46% # Class of committed instruction
system.cpu.commit.op_class_0::SimdFloatReduceAdd            0      0.00%     80.46% # Class of committed instruction
system.cpu.commit.op_class_0::SimdFloatReduceCmp            0      0.00%     80.46% # Class of committed instruction
system.cpu.commit.op_class_0::SimdAes               0      0.00%     80.46% # Class of committed instruction
system.cpu.commit.op_class_0::SimdAesMix            0      0.00%     80.46% # Class of committed instruction
system.cpu.commit.op_class_0::SimdSha1Hash            0      0.00%     80.46% # Class of committed instruction
system.cpu.commit.op_class_0::SimdSha1Hash2            0      0.00%     80.46% # Class of committed instruction
system.cpu.commit.op_class_0::SimdSha256Hash            0      0.00%     80.46% # Class of committed instruction
system.cpu.commit.op_class_0::SimdSha256Hash2            0      0.00%     80.46% # Class of committed instruction
system.cpu.commit.op_class_0::SimdShaSigma2            0      0.00%     80.46% # Class of committed instruction
system.cpu.commit.op_class_0::SimdShaSigma3            0      0.00%     80.46% # Class of committed instruction
system.cpu.commit.op_class_0::SimdPredAlu            0      0.00%     80.46% # Class of committed instruction
system.cpu.commit.op_class_0::MemRead          581952     13.79%     94.25% # Class of committed instruction
system.cpu.commit.op_class_0::MemWrite         210062      4.98%     99.23% # Class of committed instruction
system.cpu.commit.op_class_0::FloatMemRead        19888      0.47%     99.70% # Class of committed instruction
system.cpu.commit.op_class_0::FloatMemWrite        12499      0.30%    100.00% # Class of committed instruction
system.cpu.commit.op_class_0::IprAccess             0      0.00%    100.00% # Class of committed instruction
system.cpu.commit.op_class_0::InstPrefetch            0      0.00%    100.00% # Class of committed instruction
system.cpu.commit.op_class_0::total           4218781                       # Class of committed instruction
system.cpu.commit.refs                         824401                       # Number of memory references committed
system.cpu.commit.swp_count                         0                       # Number of s/w prefetches committed
system.cpu.commit.vec_insts                         0                       # Number of committed Vector instructions.
system.cpu.committedInsts                     2379543                       # Number of Instructions Simulated
system.cpu.committedOps                       4218781                       # Number of Ops (including micro ops) Simulated
system.cpu.cpi                               1.260443                       # CPI: Cycles Per Instruction
system.cpu.cpi_total                         1.260443                       # CPI: Total CPI of All Threads
system.cpu.dcache.prefetcher.num_hwpf_issued         8190                       # number of hwpf issued
system.cpu.dcache.prefetcher.pfBufferHit        34069                       # number of redundant prefetches already in prefetch queue
system.cpu.dcache.prefetcher.pfIdentified        48964                       # number of prefetch candidates identified
system.cpu.dcache.prefetcher.pfInCache              0                       # number of redundant prefetches already in cache/mshr dropped
system.cpu.dcache.prefetcher.pfRemovedFull            0                       # number of prefetches dropped due to prefetch queue size
system.cpu.dcache.prefetcher.pfSpanPage          4516                       # number of prefetches that crossed the page
system.cpu.decode.BlockedCycles               1041539                       # Number of cycles decode is blocked
system.cpu.decode.DecodedInsts                5328856                       # Number of instructions handled by decode
system.cpu.decode.IdleCycles                   353603                       # Number of cycles decode is idle
system.cpu.decode.RunCycles                   1322567                       # Number of cycles decode is running
system.cpu.decode.SquashCycles                  24576                       # Number of cycles decode is squashing
system.cpu.decode.UnblockCycles                 87418                       # Number of cycles decode is unblocking
system.cpu.dtb.rdAccesses                      686793                       # TLB accesses on read requests
system.cpu.dtb.rdMisses                          2154                       # TLB misses on read requests
system.cpu.dtb.wrAccesses                      241798                       # TLB accesses on write requests
system.cpu.dtb.wrMisses                           166                       # TLB misses on write requests
system.cpu.fetch.Branches                      568143                       # Number of branches that fetch encountered
system.cpu.fetch.CacheLines                    294111                       # Number of cache lines fetched
system.cpu.fetch.Cycles                       2416327                       # Number of cycles fetch has run and was not squashing or blocked
system.cpu.fetch.IcacheSquashes                  4597                       # Number of outstanding Icache misses that were squashed
system.cpu.fetch.Insts                        3151558                       # Number of instructions fetch has processed
system.cpu.fetch.MiscStallCycles                  157                       # Number of cycles fetch has spent waiting on interrupts, or bad addresses, or out of MSHRs
system.cpu.fetch.PendingQuiesceStallCycles            8                       # Number of stall cycles due to pending quiesce instructions
system.cpu.fetch.PendingTrapStallCycles           878                       # Number of stall cycles due to pending traps
system.cpu.fetch.SquashCycles                   49152                       # Number of cycles fetch has spent squashing
system.cpu.fetch.branchRate                  0.189427                       # Number of branch fetches per cycle
system.cpu.fetch.icacheStallCycles             387757                       # Number of cycles fetch is stalled on an Icache miss
system.cpu.fetch.predictedBranches             295726                       # Number of branches that fetch has predicted taken
system.cpu.fetch.rate                        1.050772                       # Number of inst fetches per cycle
system.cpu.fetch.rateDist::samples            2829703                       # Number of instructions fetched each cycle (Total)
system.cpu.fetch.rateDist::mean              1.981187                       # Number of instructions fetched each cycle (Total)
system.cpu.fetch.rateDist::stdev             1.923269                       # Number of instructions fetched each cycle (Total)
system.cpu.fetch.rateDist::underflows               0      0.00%      0.00% # Number of instructions fetched each cycle (Total)
system.cpu.fetch.rateDist::0                  1301879     46.01%     46.01% # Number of instructions fetched each cycle (Total)
system.cpu.fetch.rateDist::1                    86941      3.07%     49.08% # Number of instructions fetched each cycle (Total)
system.cpu.fetch.rateDist::2                    71444      2.52%     51.60% # Number of instructions fetched each cycle (Total)
system.cpu.fetch.rateDist::3                   101414      3.58%     55.19% # Number of instructions fetched each cycle (Total)
system.cpu.fetch.rateDist::4                  1268025     44.81%    100.00% # Number of instructions fetched each cycle (Total)
system.cpu.fetch.rateDist::overflows                0      0.00%    100.00% # Number of instructions fetched each cycle (Total)
system.cpu.fetch.rateDist::min_value                0                       # Number of instructions fetched each cycle (Total)
system.cpu.fetch.rateDist::max_value                4                       # Number of instructions fetched each cycle (Total)
system.cpu.fetch.rateDist::total              2829703                       # Number of instructions fetched each cycle (Total)
system.cpu.fp_regfile_reads                    123341                       # number of floating regfile reads
system.cpu.fp_regfile_writes                    68228                       # number of floating regfile writes
system.cpu.fuPool.fu_ticks_busy::IntALU(0)    248308800                       # Total ticks fu was busy
system.cpu.fuPool.fu_ticks_busy::IntALU(1)    248308800                       # Total ticks fu was busy
system.cpu.fuPool.fu_ticks_busy::IntALU(2)    248308800                       # Total ticks fu was busy
system.cpu.fuPool.fu_ticks_busy::IntALU(3)    248308800                       # Total ticks fu was busy
system.cpu.fuPool.fu_ticks_busy::IntALU(4)    248308400                       # Total ticks fu was busy
system.cpu.fuPool.fu_ticks_busy::IntALU(5)    248308400                       # Total ticks fu was busy
system.cpu.fuPool.fu_ticks_busy::IntMultDiv(0)      8659200                       # Total ticks fu was busy
system.cpu.fuPool.fu_ticks_busy::IntMultDiv(1)      8658400                       # Total ticks fu was busy
system.cpu.fuPool.fu_ticks_busy::FP_ALU(0)       611200                       # Total ticks fu was busy
system.cpu.fuPool.fu_ticks_busy::FP_ALU(1)       611200                       # Total ticks fu was busy
system.cpu.fuPool.fu_ticks_busy::FP_ALU(2)       611200                       # Total ticks fu was busy
system.cpu.fuPool.fu_ticks_busy::FP_ALU(3)       610800                       # Total ticks fu was busy
system.cpu.fuPool.fu_ticks_busy::FP_MultDiv(0)            0                       # Total ticks fu was busy
system.cpu.fuPool.fu_ticks_busy::FP_MultDiv(1)            0                       # Total ticks fu was busy
system.cpu.fuPool.fu_ticks_busy::SIMD_Unit(0)      4527600                       # Total ticks fu was busy
system.cpu.fuPool.fu_ticks_busy::SIMD_Unit(1)      4607600                       # Total ticks fu was busy
system.cpu.fuPool.fu_ticks_busy::SIMD_Unit(2)      4714800                       # Total ticks fu was busy
system.cpu.fuPool.fu_ticks_busy::SIMD_Unit(3)      4624400                       # Total ticks fu was busy
system.cpu.fuPool.fu_ticks_busy::PredALU(0)            0                       # Total ticks fu was busy
system.cpu.fuPool.fu_ticks_busy::RdWrPort(0)     94358400                       # Total ticks fu was busy
system.cpu.fuPool.fu_ticks_busy::RdWrPort(1)     94324800                       # Total ticks fu was busy
system.cpu.fuPool.fu_ticks_busy::RdWrPort(2)     94324000                       # Total ticks fu was busy
system.cpu.fuPool.fu_ticks_busy::RdWrPort(3)     94326000                       # Total ticks fu was busy
system.cpu.fuPool.fu_ticks_busy::IprPort(0)            0                       # Total ticks fu was busy
system.cpu.fuPool.fu_ticks_busy::total     1905421600                       # Total ticks fu was busy
system.cpu.icache.prefetcher.num_hwpf_issued            0                       # number of hwpf issued
system.cpu.icache.prefetcher.pfBufferHit            0                       # number of redundant prefetches already in prefetch queue
system.cpu.icache.prefetcher.pfIdentified            0                       # number of prefetch candidates identified
system.cpu.icache.prefetcher.pfInCache              0                       # number of redundant prefetches already in cache/mshr dropped
system.cpu.icache.prefetcher.pfRemovedFull            0                       # number of prefetches dropped due to prefetch queue size
system.cpu.icache.prefetcher.pfSpanPage             0                       # number of prefetches that crossed the page
system.cpu.idleCycles                          169576                       # Total number of cycles that the CPU has spent unscheduled due to idling
system.cpu.iew.branchMispredicts                28985                       # Number of branch mispredicts detected at execute
system.cpu.iew.exec_branches                   453406                       # Number of branches executed
system.cpu.iew.exec_nop                             0                       # number of nop insts executed
system.cpu.iew.exec_rate                     1.585705                       # Inst execution rate
system.cpu.iew.exec_refs                       930299                       # number of memory reference insts executed
system.cpu.iew.exec_stores                     241786                       # Number of stores executed
system.cpu.iew.exec_swp                             0                       # number of swp insts executed
system.cpu.iew.iewBlockCycles                  702508                       # Number of cycles IEW is blocking
system.cpu.iew.iewDispLoadInsts                719448                       # Number of dispatched load instructions
system.cpu.iew.iewDispNonSpecInsts               1074                       # Number of dispatched non-speculative instructions
system.cpu.iew.iewDispSquashedInsts               502                       # Number of squashed instructions skipped by dispatch
system.cpu.iew.iewDispStoreInsts               252064                       # Number of dispatched store instructions
system.cpu.iew.iewDispatchedInsts             5112088                       # Number of instructions dispatched to IQ
system.cpu.iew.iewExecLoadInsts                688513                       # Number of load instructions executed
system.cpu.iew.iewExecSquashedInsts             34717                       # Number of squashed instructions skipped in execute
system.cpu.iew.iewExecutedInsts               4755972                       # Number of executed instructions
system.cpu.iew.iewIQFullEvents                   3282                       # Number of times the IQ has become full, causing a stall
system.cpu.iew.iewIdleCycles                        0                       # Number of cycles IEW is idle
system.cpu.iew.iewLSQFullEvents                  8337                       # Number of times the LSQ has become full, causing a stall
system.cpu.iew.iewSquashCycles                  24576                       # Number of cycles IEW is squashing
system.cpu.iew.iewUnblockCycles                 14511                       # Number of cycles IEW is unblocking
system.cpu.iew.lsq.thread0.blockedLoads             0                       # Number of blocked loads due to partial load-store forwarding
system.cpu.iew.lsq.thread0.cacheBlocked           591                       # Number of times an access to memory failed due to the cache being blocked
system.cpu.iew.lsq.thread0.forwLoads            44368                       # Number of loads that had data forwarded from stores
system.cpu.iew.lsq.thread0.ignoredResponses          266                       # Number of memory responses ignored because the instruction is squashed
system.cpu.iew.lsq.thread0.invAddrLoads             0                       # Number of loads ignored due to an invalid address
system.cpu.iew.lsq.thread0.invAddrSwpfs             0                       # Number of software prefetches ignored due to an invalid address
system.cpu.iew.lsq.thread0.memOrderViolation           82                       # Number of memory ordering violations
system.cpu.iew.lsq.thread0.rescheduledLoads            0                       # Number of loads that were rescheduled
system.cpu.iew.lsq.thread0.squashedLoads       117606                       # Number of loads squashed
system.cpu.iew.lsq.thread0.squashedStores        29502                       # Number of stores squashed
system.cpu.iew.memOrderViolationEvents             82                       # Number of memory order violations
system.cpu.iew.predictedNotTakenIncorrect        20692                       # Number of branches that were predicted not taken incorrectly
system.cpu.iew.predictedTakenIncorrect           8293                       # Number of branches that were predicted taken incorrectly
system.cpu.iew.wb_consumers                   6396806                       # num instructions consuming a value
system.cpu.iew.wb_count                       4733312                       # cumulative count of insts written-back
system.cpu.iew.wb_fanout                     0.577073                       # average fanout of values written-back
system.cpu.iew.wb_producers                   3691426                       # num instructions producing a value
system.cpu.iew.wb_rate                       1.578150                       # insts written-back per cycle
system.cpu.iew.wb_sent                        4740478                       # cumulative count of insts sent to commit
system.cpu.int_regfile_reads                  7373726                       # number of integer regfile reads
system.cpu.int_regfile_writes                 4046747                       # number of integer regfile writes
system.cpu.ipc                               0.793372                       # IPC: Instructions Per Cycle
system.cpu.ipc_total                         0.793372                       # IPC: Total IPC of All Threads
system.cpu.iq.FU_type_0::No_OpClass             27135      0.57%      0.57% # Type of FU issued
system.cpu.iq.FU_type_0::IntAlu               3724631     77.75%     78.31% # Type of FU issued
system.cpu.iq.FU_type_0::IntMult                 1079      0.02%     78.34% # Type of FU issued
system.cpu.iq.FU_type_0::IntDiv                 42215      0.88%     79.22% # Type of FU issued
system.cpu.iq.FU_type_0::FloatAdd                4695      0.10%     79.32% # Type of FU issued
system.cpu.iq.FU_type_0::FloatCmp                   0      0.00%     79.32% # Type of FU issued
system.cpu.iq.FU_type_0::FloatCvt                1416      0.03%     79.34% # Type of FU issued
system.cpu.iq.FU_type_0::FloatMult                  0      0.00%     79.34% # Type of FU issued
system.cpu.iq.FU_type_0::FloatMultAcc               0      0.00%     79.34% # Type of FU issued
system.cpu.iq.FU_type_0::FloatDiv                   0      0.00%     79.34% # Type of FU issued
system.cpu.iq.FU_type_0::FloatMisc                  0      0.00%     79.34% # Type of FU issued
system.cpu.iq.FU_type_0::FloatSqrt                  0      0.00%     79.34% # Type of FU issued
system.cpu.iq.FU_type_0::SimdAdd                 7039      0.15%     79.49% # Type of FU issued
system.cpu.iq.FU_type_0::SimdAddAcc                 0      0.00%     79.49% # Type of FU issued
system.cpu.iq.FU_type_0::SimdAlu                15064      0.31%     79.81% # Type of FU issued
system.cpu.iq.FU_type_0::SimdCmp                    0      0.00%     79.81% # Type of FU issued
system.cpu.iq.FU_type_0::SimdCvt                14284      0.30%     80.10% # Type of FU issued
system.cpu.iq.FU_type_0::SimdMisc                7343      0.15%     80.26% # Type of FU issued
system.cpu.iq.FU_type_0::SimdMult                   0      0.00%     80.26% # Type of FU issued
system.cpu.iq.FU_type_0::SimdMultAcc                0      0.00%     80.26% # Type of FU issued
system.cpu.iq.FU_type_0::SimdShift               2456      0.05%     80.31% # Type of FU issued
system.cpu.iq.FU_type_0::SimdShiftAcc               0      0.00%     80.31% # Type of FU issued
system.cpu.iq.FU_type_0::SimdDiv                    0      0.00%     80.31% # Type of FU issued
system.cpu.iq.FU_type_0::SimdSqrt                   0      0.00%     80.31% # Type of FU issued
system.cpu.iq.FU_type_0::SimdFloatAdd               0      0.00%     80.31% # Type of FU issued
system.cpu.iq.FU_type_0::SimdFloatAlu               0      0.00%     80.31% # Type of FU issued
system.cpu.iq.FU_type_0::SimdFloatCmp               0      0.00%     80.31% # Type of FU issued
system.cpu.iq.FU_type_0::SimdFloatCvt               0      0.00%     80.31% # Type of FU issued
system.cpu.iq.FU_type_0::SimdFloatDiv               0      0.00%     80.31% # Type of FU issued
system.cpu.iq.FU_type_0::SimdFloatMisc              0      0.00%     80.31% # Type of FU issued
system.cpu.iq.FU_type_0::SimdFloatMult              0      0.00%     80.31% # Type of FU issued
system.cpu.iq.FU_type_0::SimdFloatMultAcc            0      0.00%     80.31% # Type of FU issued
system.cpu.iq.FU_type_0::SimdFloatSqrt              0      0.00%     80.31% # Type of FU issued
system.cpu.iq.FU_type_0::SimdReduceAdd              0      0.00%     80.31% # Type of FU issued
system.cpu.iq.FU_type_0::SimdReduceAlu              0      0.00%     80.31% # Type of FU issued
system.cpu.iq.FU_type_0::SimdReduceCmp              0      0.00%     80.31% # Type of FU issued
system.cpu.iq.FU_type_0::SimdFloatReduceAdd            0      0.00%     80.31% # Type of FU issued
system.cpu.iq.FU_type_0::SimdFloatReduceCmp            0      0.00%     80.31% # Type of FU issued
system.cpu.iq.FU_type_0::SimdAes                    0      0.00%     80.31% # Type of FU issued
system.cpu.iq.FU_type_0::SimdAesMix                 0      0.00%     80.31% # Type of FU issued
system.cpu.iq.FU_type_0::SimdSha1Hash               0      0.00%     80.31% # Type of FU issued
system.cpu.iq.FU_type_0::SimdSha1Hash2              0      0.00%     80.31% # Type of FU issued
system.cpu.iq.FU_type_0::SimdSha256Hash             0      0.00%     80.31% # Type of FU issued
system.cpu.iq.FU_type_0::SimdSha256Hash2            0      0.00%     80.31% # Type of FU issued
system.cpu.iq.FU_type_0::SimdShaSigma2              0      0.00%     80.31% # Type of FU issued
system.cpu.iq.FU_type_0::SimdShaSigma3              0      0.00%     80.31% # Type of FU issued
system.cpu.iq.FU_type_0::SimdPredAlu                0      0.00%     80.31% # Type of FU issued
system.cpu.iq.FU_type_0::MemRead               672700     14.04%     94.35% # Type of FU issued
system.cpu.iq.FU_type_0::MemWrite              230662      4.81%     99.17% # Type of FU issued
system.cpu.iq.FU_type_0::FloatMemRead           26264      0.55%     99.71% # Type of FU issued
system.cpu.iq.FU_type_0::FloatMemWrite          13709      0.29%    100.00% # Type of FU issued
system.cpu.iq.FU_type_0::IprAccess                  0      0.00%    100.00% # Type of FU issued
system.cpu.iq.FU_type_0::InstPrefetch               0      0.00%    100.00% # Type of FU issued
system.cpu.iq.FU_type_0::total                4790692                       # Type of FU issued
system.cpu.iq.fp_alu_accesses                   93327                       # Number of floating point alu accesses
system.cpu.iq.fp_inst_queue_reads              188041                       # Number of floating instruction queue reads
system.cpu.iq.fp_inst_queue_wakeup_accesses        89578                       # Number of floating instruction queue wakeup accesses
system.cpu.iq.fp_inst_queue_writes             136185                       # Number of floating instruction queue writes
system.cpu.iq.fu_busy_cnt                           0                       # FU busy when requested
system.cpu.iq.fu_busy_rate                          0                       # FU busy rate (busy events/executed inst)
system.cpu.iq.fu_full::No_OpClass                   0                       # attempts to use FU when none available
system.cpu.iq.fu_full::IntAlu                       0                       # attempts to use FU when none available
system.cpu.iq.fu_full::IntMult                      0                       # attempts to use FU when none available
system.cpu.iq.fu_full::IntDiv                       0                       # attempts to use FU when none available
system.cpu.iq.fu_full::FloatAdd                     0                       # attempts to use FU when none available
system.cpu.iq.fu_full::FloatCmp                     0                       # attempts to use FU when none available
system.cpu.iq.fu_full::FloatCvt                     0                       # attempts to use FU when none available
system.cpu.iq.fu_full::FloatMult                    0                       # attempts to use FU when none available
system.cpu.iq.fu_full::FloatMultAcc                 0                       # attempts to use FU when none available
system.cpu.iq.fu_full::FloatDiv                     0                       # attempts to use FU when none available
system.cpu.iq.fu_full::FloatMisc                    0                       # attempts to use FU when none available
system.cpu.iq.fu_full::FloatSqrt                    0                       # attempts to use FU when none available
system.cpu.iq.fu_full::SimdAdd                      0                       # attempts to use FU when none available
system.cpu.iq.fu_full::SimdAddAcc                   0                       # attempts to use FU when none available
system.cpu.iq.fu_full::SimdAlu                      0                       # attempts to use FU when none available
system.cpu.iq.fu_full::SimdCmp                      0                       # attempts to use FU when none available
system.cpu.iq.fu_full::SimdCvt                      0                       # attempts to use FU when none available
system.cpu.iq.fu_full::SimdMisc                     0                       # attempts to use FU when none available
system.cpu.iq.fu_full::SimdMult                     0                       # attempts to use FU when none available
system.cpu.iq.fu_full::SimdMultAcc                  0                       # attempts to use FU when none available
system.cpu.iq.fu_full::SimdShift                    0                       # attempts to use FU when none available
system.cpu.iq.fu_full::SimdShiftAcc                 0                       # attempts to use FU when none available
system.cpu.iq.fu_full::SimdDiv                      0                       # attempts to use FU when none available
system.cpu.iq.fu_full::SimdSqrt                     0                       # attempts to use FU when none available
system.cpu.iq.fu_full::SimdFloatAdd                 0                       # attempts to use FU when none available
system.cpu.iq.fu_full::SimdFloatAlu                 0                       # attempts to use FU when none available
system.cpu.iq.fu_full::SimdFloatCmp                 0                       # attempts to use FU when none available
system.cpu.iq.fu_full::SimdFloatCvt                 0                       # attempts to use FU when none available
system.cpu.iq.fu_full::SimdFloatDiv                 0                       # attempts to use FU when none available
system.cpu.iq.fu_full::SimdFloatMisc                0                       # attempts to use FU when none available
system.cpu.iq.fu_full::SimdFloatMult                0                       # attempts to use FU when none available
system.cpu.iq.fu_full::SimdFloatMultAcc             0                       # attempts to use FU when none available
system.cpu.iq.fu_full::SimdFloatSqrt                0                       # attempts to use FU when none available
system.cpu.iq.fu_full::SimdReduceAdd                0                       # attempts to use FU when none available
system.cpu.iq.fu_full::SimdReduceAlu                0                       # attempts to use FU when none available
system.cpu.iq.fu_full::SimdReduceCmp                0                       # attempts to use FU when none available
system.cpu.iq.fu_full::SimdFloatReduceAdd            0                       # attempts to use FU when none available
system.cpu.iq.fu_full::SimdFloatReduceCmp            0                       # attempts to use FU when none available
system.cpu.iq.fu_full::SimdAes                      0                       # attempts to use FU when none available
system.cpu.iq.fu_full::SimdAesMix                   0                       # attempts to use FU when none available
system.cpu.iq.fu_full::SimdSha1Hash                 0                       # attempts to use FU when none available
system.cpu.iq.fu_full::SimdSha1Hash2                0                       # attempts to use FU when none available
system.cpu.iq.fu_full::SimdSha256Hash               0                       # attempts to use FU when none available
system.cpu.iq.fu_full::SimdSha256Hash2              0                       # attempts to use FU when none available
system.cpu.iq.fu_full::SimdShaSigma2                0                       # attempts to use FU when none available
system.cpu.iq.fu_full::SimdShaSigma3                0                       # attempts to use FU when none available
system.cpu.iq.fu_full::SimdPredAlu                  0                       # attempts to use FU when none available
system.cpu.iq.fu_full::MemRead                      0                       # attempts to use FU when none available
system.cpu.iq.fu_full::MemWrite                     0                       # attempts to use FU when none available
system.cpu.iq.fu_full::FloatMemRead                 0                       # attempts to use FU when none available
system.cpu.iq.fu_full::FloatMemWrite                0                       # attempts to use FU when none available
system.cpu.iq.fu_full::IprAccess                    0                       # attempts to use FU when none available
system.cpu.iq.fu_full::InstPrefetch                 0                       # attempts to use FU when none available
system.cpu.iq.int_alu_accesses                4670230                       # Number of integer alu accesses
system.cpu.iq.int_inst_queue_reads           12240814                       # Number of integer instruction queue reads
system.cpu.iq.int_inst_queue_wakeup_accesses      4643734                       # Number of integer instruction queue wakeup accesses
system.cpu.iq.int_inst_queue_writes           5869280                       # Number of integer instruction queue writes
system.cpu.iq.iqInstsAdded                    5110822                       # Number of instructions added to the IQ (excludes non-spec)
system.cpu.iq.iqInstsIssued                   4790692                       # Number of instructions issued
system.cpu.iq.iqNonSpecInstsAdded                1266                       # Number of non-speculative instructions added to the IQ
system.cpu.iq.iqSquashedInstsExamined          893296                       # Number of squashed instructions iterated over during squash; mainly for profiling
system.cpu.iq.iqSquashedInstsIssued             17771                       # Number of squashed instructions issued
system.cpu.iq.iqSquashedNonSpecRemoved            402                       # Number of squashed non-spec instructions that were removed
system.cpu.iq.iqSquashedOperandsExamined      1331073                       # Number of squashed operands that are examined and possibly removed from graph
system.cpu.iq.issued_per_cycle::samples       2829703                       # Number of insts issued each cycle
system.cpu.iq.issued_per_cycle::mean         1.693002                       # Number of insts issued each cycle
system.cpu.iq.issued_per_cycle::stdev        1.663667                       # Number of insts issued each cycle
system.cpu.iq.issued_per_cycle::underflows            0      0.00%      0.00% # Number of insts issued each cycle
system.cpu.iq.issued_per_cycle::0             1200938     42.44%     42.44% # Number of insts issued each cycle
system.cpu.iq.issued_per_cycle::1              208817      7.38%     49.82% # Number of insts issued each cycle
system.cpu.iq.issued_per_cycle::2              350051     12.37%     62.19% # Number of insts issued each cycle
system.cpu.iq.issued_per_cycle::3              397815     14.06%     76.25% # Number of insts issued each cycle
system.cpu.iq.issued_per_cycle::4              672082     23.75%    100.00% # Number of insts issued each cycle
system.cpu.iq.issued_per_cycle::overflows            0      0.00%    100.00% # Number of insts issued each cycle
system.cpu.iq.issued_per_cycle::min_value            0                       # Number of insts issued each cycle
system.cpu.iq.issued_per_cycle::max_value            4                       # Number of insts issued each cycle
system.cpu.iq.issued_per_cycle::total         2829703                       # Number of insts issued each cycle
system.cpu.iq.rate                           1.597281                       # Inst issue rate
system.cpu.iq.vec_alu_accesses                      0                       # Number of vector alu accesses
system.cpu.iq.vec_inst_queue_reads                  0                       # Number of vector instruction queue reads
system.cpu.iq.vec_inst_queue_wakeup_accesses            0                       # Number of vector instruction queue wakeup accesses
system.cpu.iq.vec_inst_queue_writes                 0                       # Number of vector instruction queue writes
system.cpu.itb.rdAccesses                           0                       # TLB accesses on read requests
system.cpu.itb.rdMisses                             0                       # TLB misses on read requests
system.cpu.itb.wrAccesses                      294260                       # TLB accesses on write requests
system.cpu.itb.wrMisses                           410                       # TLB misses on write requests
system.cpu.memDep0.conflictingLoads             11340                       # Number of conflicting loads.
system.cpu.memDep0.conflictingStores             4894                       # Number of conflicting stores.
system.cpu.memDep0.insertedLoads               719448                       # Number of loads inserted to the mem dependence unit.
system.cpu.memDep0.insertedStores              252064                       # Number of stores inserted to the mem dependence unit.
system.cpu.misc_regfile_reads                 1868719                       # number of misc regfile reads
system.cpu.misc_regfile_writes                    774                       # number of misc regfile writes
system.cpu.numCycles                          2999279                       # number of cpu cycles simulated
system.cpu.numWorkItemsCompleted                    0                       # number of work items this cpu completed
system.cpu.numWorkItemsStarted                      0                       # number of work items this cpu started
system.cpu.process.numSyscalls                     89                       # Number of system calls
system.cpu.rename.BlockCycles                  849791                       # Number of cycles rename is blocking
system.cpu.rename.CommittedMaps               5553667                       # Number of HB maps that are committed
system.cpu.rename.FullRegisterEvents              128                       # Number of times there has been no free registers
system.cpu.rename.IQFullEvents                  44866                       # Number of times rename has blocked due to IQ full
system.cpu.rename.IdleCycles                   403264                       # Number of cycles rename is idle
system.cpu.rename.LQFullEvents                  18923                       # Number of times rename has blocked due to LQ full
system.cpu.rename.ROBFullEvents                  4469                       # Number of times rename has blocked due to ROB full
system.cpu.rename.RenameLookups              13662855                       # Number of register rename lookups that rename has made
system.cpu.rename.RenamedInsts                5253601                       # Number of instructions processed by rename
system.cpu.rename.RenamedOperands             6958039                       # Number of destination operands rename has renamed
system.cpu.rename.RunCycles                   1352068                       # Number of cycles rename is running
system.cpu.rename.SQFullEvents                  78306                       # Number of times rename has blocked due to SQ full
system.cpu.rename.SquashCycles                  24576                       # Number of cycles rename is squashing
system.cpu.rename.UnblockCycles                178115                       # Number of cycles rename is unblocking
system.cpu.rename.UndoneMaps                  1404349                       # Number of HB maps that are undone due to squashing
system.cpu.rename.fp_rename_lookups            160125                       # Number of floating rename lookups
system.cpu.rename.int_rename_lookups          8322025                       # Number of integer rename lookups
system.cpu.rename.serializeStallCycles          21889                       # count of cycles rename stalled for serializing inst
system.cpu.rename.serializingInsts               1007                       # count of serializing insts renamed
system.cpu.rename.skidInsts                    202525                       # count of insts added to the skid buffer
system.cpu.rename.tempSerializingInsts           1065                       # count of temporary serializing insts renamed
system.cpu.rob.rob_reads                      6988713                       # The number of ROB reads
system.cpu.rob.rob_writes                    10469007                       # The number of ROB writes
system.cpu.timesIdled                            1696                       # Number of times that the entire CPU went into an idle state and unscheduled itself
system.l2bus.snoop_filter.hit_multi_requests           15                       # Number of requests hitting in the snoop filter with multiple (>1) holders of the requested data.
system.l2bus.snoop_filter.hit_multi_snoops            0                       # Number of snoops hitting in the snoop filter with multiple (>1) holders of the requested data.
system.l2bus.snoop_filter.hit_single_requests        18841                       # Number of requests hitting in the snoop filter with a single holder of the requested data.
system.l2bus.snoop_filter.hit_single_snoops          459                       # Number of snoops hitting in the snoop filter with a single holder of the requested data.
system.l2bus.snoop_filter.tot_requests          38962                       # Total number of requests made to the snoop filter.
system.l2bus.snoop_filter.tot_snoops              459                       # Total number of snoops made to the snoop filter.
system.l2cache.prefetcher.num_hwpf_issued          627                       # number of hwpf issued
system.l2cache.prefetcher.pfBufferHit               0                       # number of redundant prefetches already in prefetch queue
system.l2cache.prefetcher.pfIdentified            628                       # number of prefetch candidates identified
system.l2cache.prefetcher.pfInCache                 0                       # number of redundant prefetches already in cache/mshr dropped
system.l2cache.prefetcher.pfRemovedFull             0                       # number of prefetches dropped due to prefetch queue size
system.l2cache.prefetcher.pfSpanPage              104                       # number of prefetches that crossed the page
system.membus.snoop_filter.hit_multi_requests            0                       # Number of requests hitting in the snoop filter with multiple (>1) holders of the requested data.
system.membus.snoop_filter.hit_multi_snoops            0                       # Number of snoops hitting in the snoop filter with multiple (>1) holders of the requested data.
system.membus.snoop_filter.hit_single_requests         9604                       # Number of requests hitting in the snoop filter with a single holder of the requested data.
system.membus.snoop_filter.hit_single_snoops            0                       # Number of snoops hitting in the snoop filter with a single holder of the requested data.
system.membus.snoop_filter.tot_requests         23334                       # Total number of requests made to the snoop filter.
system.membus.snoop_filter.tot_snoops               0                       # Total number of snoops made to the snoop filter.
system.membus.pwrStateResidencyTicks::UNDEFINED   1199711200                       # Cumulative time (in ticks) in various power states
system.membus.trans_dist::ReadResp              12416                       # Transaction distribution
system.membus.trans_dist::WritebackDirty         1355                       # Transaction distribution
system.membus.trans_dist::CleanEvict             8249                       # Transaction distribution
system.membus.trans_dist::ReadExReq              1314                       # Transaction distribution
system.membus.trans_dist::ReadExResp             1314                       # Transaction distribution
system.membus.trans_dist::ReadSharedReq         12416                       # Transaction distribution
system.membus.pkt_count_system.l2cache.mem_side::system.mem_ctrl.port        37064                       # Packet count per connected master and slave (bytes)
system.membus.pkt_count_system.l2cache.mem_side::total        37064                       # Packet count per connected master and slave (bytes)
system.membus.pkt_count::total                  37064                       # Packet count per connected master and slave (bytes)
system.membus.pkt_size_system.l2cache.mem_side::system.mem_ctrl.port       965440                       # Cumulative packet size per connected master and slave (bytes)
system.membus.pkt_size_system.l2cache.mem_side::total       965440                       # Cumulative packet size per connected master and slave (bytes)
system.membus.pkt_size::total                  965440                       # Cumulative packet size per connected master and slave (bytes)
system.membus.snoops                                0                       # Total snoops (count)
system.membus.snoopTraffic                          0                       # Total snoop traffic (bytes)
system.membus.snoop_fanout::samples             13730                       # Request fanout histogram
system.membus.snoop_fanout::mean                    0                       # Request fanout histogram
system.membus.snoop_fanout::stdev                   0                       # Request fanout histogram
system.membus.snoop_fanout::underflows              0      0.00%      0.00% # Request fanout histogram
system.membus.snoop_fanout::0                   13730    100.00%    100.00% # Request fanout histogram
system.membus.snoop_fanout::1                       0      0.00%    100.00% # Request fanout histogram
system.membus.snoop_fanout::overflows               0      0.00%    100.00% # Request fanout histogram
system.membus.snoop_fanout::min_value               0                       # Request fanout histogram
system.membus.snoop_fanout::max_value               0                       # Request fanout histogram
system.membus.snoop_fanout::total               13730                       # Request fanout histogram
system.membus.reqLayer2.occupancy            11526220                       # Layer occupancy (ticks)
system.membus.reqLayer2.utilization               1.0                       # Layer utilization (%)
system.membus.respLayer0.occupancy           29796880                       # Layer occupancy (ticks)
system.membus.respLayer0.utilization              2.5                       # Layer utilization (%)
system.l2bus.pwrStateResidencyTicks::UNDEFINED   1199711200                       # Cumulative time (in ticks) in various power states
system.l2bus.trans_dist::ReadResp               18122                       # Transaction distribution
system.l2bus.trans_dist::WritebackDirty          4117                       # Transaction distribution
system.l2bus.trans_dist::CleanEvict             24421                       # Transaction distribution
system.l2bus.trans_dist::HardPFReq                897                       # Transaction distribution
system.l2bus.trans_dist::ReadExReq               1999                       # Transaction distribution
system.l2bus.trans_dist::ReadExResp              1999                       # Transaction distribution
system.l2bus.trans_dist::ReadSharedReq          18122                       # Transaction distribution
system.l2bus.pkt_count_system.cpu.icache.mem_side::system.l2cache.cpu_side         8917                       # Packet count per connected master and slave (bytes)
system.l2bus.pkt_count_system.cpu.dcache.mem_side::system.l2cache.cpu_side        50162                       # Packet count per connected master and slave (bytes)
system.l2bus.pkt_count::total                   59079                       # Packet count per connected master and slave (bytes)
system.l2bus.pkt_size_system.cpu.icache.mem_side::system.l2cache.cpu_side       195840                       # Cumulative packet size per connected master and slave (bytes)
system.l2bus.pkt_size_system.cpu.dcache.mem_side::system.l2cache.cpu_side      1268416                       # Cumulative packet size per connected master and slave (bytes)
system.l2bus.pkt_size::total                  1464256                       # Cumulative packet size per connected master and slave (bytes)
system.l2bus.snoops                             10598                       # Total snoops (count)
system.l2bus.snoopTraffic                       86976                       # Total snoop traffic (bytes)
system.l2bus.snoop_fanout::samples              30715                       # Request fanout histogram
system.l2bus.snoop_fanout::mean              0.015432                       # Request fanout histogram
system.l2bus.snoop_fanout::stdev             0.123266                       # Request fanout histogram
system.l2bus.snoop_fanout::underflows               0      0.00%      0.00% # Request fanout histogram
system.l2bus.snoop_fanout::0                    30241     98.46%     98.46% # Request fanout histogram
system.l2bus.snoop_fanout::1                      474      1.54%    100.00% # Request fanout histogram
system.l2bus.snoop_fanout::2                        0      0.00%    100.00% # Request fanout histogram
system.l2bus.snoop_fanout::overflows                0      0.00%    100.00% # Request fanout histogram
system.l2bus.snoop_fanout::min_value                0                       # Request fanout histogram
system.l2bus.snoop_fanout::max_value                1                       # Request fanout histogram
system.l2bus.snoop_fanout::total                30715                       # Request fanout histogram
system.l2bus.respLayer1.occupancy            20477196                       # Layer occupancy (ticks)
system.l2bus.respLayer1.utilization               1.7                       # Layer utilization (%)
system.l2bus.reqLayer0.occupancy             19239806                       # Layer occupancy (ticks)
system.l2bus.reqLayer0.utilization                1.6                       # Layer utilization (%)
system.l2bus.respLayer0.occupancy             3671994                       # Layer occupancy (ticks)
system.l2bus.respLayer0.utilization               0.3                       # Layer utilization (%)
system.clk_domain.clock                           400                       # Clock period in ticks
system.clk_domain.voltage_domain.voltage            1                       # Voltage in Volts
system.cpu.pwrStateResidencyTicks::ON      1199711200                       # Cumulative time (in ticks) in various power states
system.cpu.icache.pwrStateResidencyTicks::UNDEFINED   1199711200                       # Cumulative time (in ticks) in various power states
system.cpu.icache.demand_hits::.cpu.inst       290325                       # number of demand (read+write) hits
system.cpu.icache.demand_hits::total           290325                       # number of demand (read+write) hits
system.cpu.icache.overall_hits::.cpu.inst       290325                       # number of overall hits
system.cpu.icache.overall_hits::total          290325                       # number of overall hits
system.cpu.icache.demand_misses::.cpu.inst         3785                       # number of demand (read+write) misses
system.cpu.icache.demand_misses::total           3785                       # number of demand (read+write) misses
system.cpu.icache.overall_misses::.cpu.inst         3785                       # number of overall misses
system.cpu.icache.overall_misses::total          3785                       # number of overall misses
system.cpu.icache.demand_miss_latency::.cpu.inst    184452000                       # number of demand (read+write) miss cycles
system.cpu.icache.demand_miss_latency::total    184452000                       # number of demand (read+write) miss cycles
system.cpu.icache.overall_miss_latency::.cpu.inst    184452000                       # number of overall miss cycles
system.cpu.icache.overall_miss_latency::total    184452000                       # number of overall miss cycles
system.cpu.icache.demand_accesses::.cpu.inst       294110                       # number of demand (read+write) accesses
system.cpu.icache.demand_accesses::total       294110                       # number of demand (read+write) accesses
system.cpu.icache.overall_accesses::.cpu.inst       294110                       # number of overall (read+write) accesses
system.cpu.icache.overall_accesses::total       294110                       # number of overall (read+write) accesses
system.cpu.icache.demand_miss_rate::.cpu.inst     0.012869                       # miss rate for demand accesses
system.cpu.icache.demand_miss_rate::total     0.012869                       # miss rate for demand accesses
system.cpu.icache.overall_miss_rate::.cpu.inst     0.012869                       # miss rate for overall accesses
system.cpu.icache.overall_miss_rate::total     0.012869                       # miss rate for overall accesses
system.cpu.icache.demand_avg_miss_latency::.cpu.inst 48732.364597                       # average overall miss latency
system.cpu.icache.demand_avg_miss_latency::total 48732.364597                       # average overall miss latency
system.cpu.icache.overall_avg_miss_latency::.cpu.inst 48732.364597                       # average overall miss latency
system.cpu.icache.overall_avg_miss_latency::total 48732.364597                       # average overall miss latency
system.cpu.icache.blocked_cycles::no_mshrs          172                       # number of cycles access was blocked
system.cpu.icache.blocked_cycles::no_targets            0                       # number of cycles access was blocked
system.cpu.icache.blocked::no_mshrs                 4                       # number of cycles access was blocked
system.cpu.icache.blocked::no_targets               0                       # number of cycles access was blocked
system.cpu.icache.avg_blocked_cycles::no_mshrs           43                       # average number of cycles each access was blocked
system.cpu.icache.avg_blocked_cycles::no_targets          nan                       # average number of cycles each access was blocked
system.cpu.icache.writebacks::.writebacks            3                       # number of writebacks
system.cpu.icache.writebacks::total                 3                       # number of writebacks
system.cpu.icache.demand_mshr_hits::.cpu.inst          727                       # number of demand (read+write) MSHR hits
system.cpu.icache.demand_mshr_hits::total          727                       # number of demand (read+write) MSHR hits
system.cpu.icache.overall_mshr_hits::.cpu.inst          727                       # number of overall MSHR hits
system.cpu.icache.overall_mshr_hits::total          727                       # number of overall MSHR hits
system.cpu.icache.demand_mshr_misses::.cpu.inst         3058                       # number of demand (read+write) MSHR misses
system.cpu.icache.demand_mshr_misses::total         3058                       # number of demand (read+write) MSHR misses
system.cpu.icache.overall_mshr_misses::.cpu.inst         3058                       # number of overall MSHR misses
system.cpu.icache.overall_mshr_misses::total         3058                       # number of overall MSHR misses
system.cpu.icache.demand_mshr_miss_latency::.cpu.inst    148950400                       # number of demand (read+write) MSHR miss cycles
system.cpu.icache.demand_mshr_miss_latency::total    148950400                       # number of demand (read+write) MSHR miss cycles
system.cpu.icache.overall_mshr_miss_latency::.cpu.inst    148950400                       # number of overall MSHR miss cycles
system.cpu.icache.overall_mshr_miss_latency::total    148950400                       # number of overall MSHR miss cycles
system.cpu.icache.demand_mshr_miss_rate::.cpu.inst     0.010397                       # mshr miss rate for demand accesses
system.cpu.icache.demand_mshr_miss_rate::total     0.010397                       # mshr miss rate for demand accesses
system.cpu.icache.overall_mshr_miss_rate::.cpu.inst     0.010397                       # mshr miss rate for overall accesses
system.cpu.icache.overall_mshr_miss_rate::total     0.010397                       # mshr miss rate for overall accesses
system.cpu.icache.demand_avg_mshr_miss_latency::.cpu.inst 48708.436887                       # average overall mshr miss latency
system.cpu.icache.demand_avg_mshr_miss_latency::total 48708.436887                       # average overall mshr miss latency
system.cpu.icache.overall_avg_mshr_miss_latency::.cpu.inst 48708.436887                       # average overall mshr miss latency
system.cpu.icache.overall_avg_mshr_miss_latency::total 48708.436887                       # average overall mshr miss latency
system.cpu.icache.replacements                   2802                       # number of replacements
system.cpu.icache.ReadReq_hits::.cpu.inst       290325                       # number of ReadReq hits
system.cpu.icache.ReadReq_hits::total          290325                       # number of ReadReq hits
system.cpu.icache.ReadReq_misses::.cpu.inst         3785                       # number of ReadReq misses
system.cpu.icache.ReadReq_misses::total          3785                       # number of ReadReq misses
system.cpu.icache.ReadReq_miss_latency::.cpu.inst    184452000                       # number of ReadReq miss cycles
system.cpu.icache.ReadReq_miss_latency::total    184452000                       # number of ReadReq miss cycles
system.cpu.icache.ReadReq_accesses::.cpu.inst       294110                       # number of ReadReq accesses(hits+misses)
system.cpu.icache.ReadReq_accesses::total       294110                       # number of ReadReq accesses(hits+misses)
system.cpu.icache.ReadReq_miss_rate::.cpu.inst     0.012869                       # miss rate for ReadReq accesses
system.cpu.icache.ReadReq_miss_rate::total     0.012869                       # miss rate for ReadReq accesses
system.cpu.icache.ReadReq_avg_miss_latency::.cpu.inst 48732.364597                       # average ReadReq miss latency
system.cpu.icache.ReadReq_avg_miss_latency::total 48732.364597                       # average ReadReq miss latency
system.cpu.icache.ReadReq_mshr_hits::.cpu.inst          727                       # number of ReadReq MSHR hits
system.cpu.icache.ReadReq_mshr_hits::total          727                       # number of ReadReq MSHR hits
system.cpu.icache.ReadReq_mshr_misses::.cpu.inst         3058                       # number of ReadReq MSHR misses
system.cpu.icache.ReadReq_mshr_misses::total         3058                       # number of ReadReq MSHR misses
system.cpu.icache.ReadReq_mshr_miss_latency::.cpu.inst    148950400                       # number of ReadReq MSHR miss cycles
system.cpu.icache.ReadReq_mshr_miss_latency::total    148950400                       # number of ReadReq MSHR miss cycles
system.cpu.icache.ReadReq_mshr_miss_rate::.cpu.inst     0.010397                       # mshr miss rate for ReadReq accesses
system.cpu.icache.ReadReq_mshr_miss_rate::total     0.010397                       # mshr miss rate for ReadReq accesses
system.cpu.icache.ReadReq_avg_mshr_miss_latency::.cpu.inst 48708.436887                       # average ReadReq mshr miss latency
system.cpu.icache.ReadReq_avg_mshr_miss_latency::total 48708.436887                       # average ReadReq mshr miss latency
system.cpu.icache.prefetcher.pwrStateResidencyTicks::UNDEFINED   1199711200                       # Cumulative time (in ticks) in various power states
system.cpu.icache.tags.pwrStateResidencyTicks::UNDEFINED   1199711200                       # Cumulative time (in ticks) in various power states
system.cpu.icache.tags.tagsinuse           253.774033                       # Cycle average of tags in use
system.cpu.icache.tags.total_refs              259368                       # Total number of references to valid blocks.
system.cpu.icache.tags.sampled_refs              2802                       # Sample count of references to valid blocks.
system.cpu.icache.tags.avg_refs             92.565310                       # Average number of references to valid blocks.
system.cpu.icache.tags.warmup_cycle             66400                       # Cycle when the warmup percentage was hit.
system.cpu.icache.tags.occ_blocks::.cpu.inst   253.774033                       # Average occupied blocks per requestor
system.cpu.icache.tags.occ_percent::.cpu.inst     0.991305                       # Average percentage of cache occupancy
system.cpu.icache.tags.occ_percent::total     0.991305                       # Average percentage of cache occupancy
system.cpu.icache.tags.occ_task_id_blocks::1024          256                       # Occupied blocks per task id
system.cpu.icache.tags.age_task_id_blocks_1024::0           75                       # Occupied blocks per task id
system.cpu.icache.tags.age_task_id_blocks_1024::1            3                       # Occupied blocks per task id
system.cpu.icache.tags.age_task_id_blocks_1024::2          177                       # Occupied blocks per task id
system.cpu.icache.tags.age_task_id_blocks_1024::3            1                       # Occupied blocks per task id
system.cpu.icache.tags.occ_task_id_percent::1024            1                       # Percentage of cache occupancy per task id
system.cpu.icache.tags.tag_accesses            591278                       # Number of tag accesses
system.cpu.icache.tags.data_accesses           591278                       # Number of data accesses
system.cpu.dtb.walker.pwrStateResidencyTicks::UNDEFINED   1199711200                       # Cumulative time (in ticks) in various power states
system.cpu.interrupts.clk_domain.clock           6400                       # Clock period in ticks
system.cpu.itb.walker.pwrStateResidencyTicks::UNDEFINED   1199711200                       # Cumulative time (in ticks) in various power states
system.cpu.dcache.pwrStateResidencyTicks::UNDEFINED   1199711200                       # Cumulative time (in ticks) in various power states
system.cpu.dcache.demand_hits::.cpu.data       828162                       # number of demand (read+write) hits
system.cpu.dcache.demand_hits::total           828162                       # number of demand (read+write) hits
system.cpu.dcache.overall_hits::.cpu.data       828162                       # number of overall hits
system.cpu.dcache.overall_hits::total          828162                       # number of overall hits
system.cpu.dcache.demand_misses::.cpu.data        35634                       # number of demand (read+write) misses
system.cpu.dcache.demand_misses::total          35634                       # number of demand (read+write) misses
system.cpu.dcache.overall_misses::.cpu.data        35634                       # number of overall misses
system.cpu.dcache.overall_misses::total         35634                       # number of overall misses
system.cpu.dcache.demand_miss_latency::.cpu.data   1727687597                       # number of demand (read+write) miss cycles
system.cpu.dcache.demand_miss_latency::total   1727687597                       # number of demand (read+write) miss cycles
system.cpu.dcache.overall_miss_latency::.cpu.data   1727687597                       # number of overall miss cycles
system.cpu.dcache.overall_miss_latency::total   1727687597                       # number of overall miss cycles
system.cpu.dcache.demand_accesses::.cpu.data       863796                       # number of demand (read+write) accesses
system.cpu.dcache.demand_accesses::total       863796                       # number of demand (read+write) accesses
system.cpu.dcache.overall_accesses::.cpu.data       863796                       # number of overall (read+write) accesses
system.cpu.dcache.overall_accesses::total       863796                       # number of overall (read+write) accesses
system.cpu.dcache.demand_miss_rate::.cpu.data     0.041253                       # miss rate for demand accesses
system.cpu.dcache.demand_miss_rate::total     0.041253                       # miss rate for demand accesses
system.cpu.dcache.overall_miss_rate::.cpu.data     0.041253                       # miss rate for overall accesses
system.cpu.dcache.overall_miss_rate::total     0.041253                       # miss rate for overall accesses
system.cpu.dcache.demand_avg_miss_latency::.cpu.data 48484.245299                       # average overall miss latency
system.cpu.dcache.demand_avg_miss_latency::total 48484.245299                       # average overall miss latency
system.cpu.dcache.overall_avg_miss_latency::.cpu.data 48484.245299                       # average overall miss latency
system.cpu.dcache.overall_avg_miss_latency::total 48484.245299                       # average overall miss latency
system.cpu.dcache.blocked_cycles::no_mshrs        28316                       # number of cycles access was blocked
system.cpu.dcache.blocked_cycles::no_targets          174                       # number of cycles access was blocked
system.cpu.dcache.blocked::no_mshrs               721                       # number of cycles access was blocked
system.cpu.dcache.blocked::no_targets               2                       # number of cycles access was blocked
system.cpu.dcache.avg_blocked_cycles::no_mshrs    39.273232                       # average number of cycles each access was blocked
system.cpu.dcache.avg_blocked_cycles::no_targets           87                       # average number of cycles each access was blocked
system.cpu.dcache.unused_prefetches              1848                       # number of HardPF blocks evicted w/o reference
system.cpu.dcache.writebacks::.writebacks         2759                       # number of writebacks
system.cpu.dcache.writebacks::total              2759                       # number of writebacks
system.cpu.dcache.demand_mshr_hits::.cpu.data        22944                       # number of demand (read+write) MSHR hits
system.cpu.dcache.demand_mshr_hits::total        22944                       # number of demand (read+write) MSHR hits
system.cpu.dcache.overall_mshr_hits::.cpu.data        22944                       # number of overall MSHR hits
system.cpu.dcache.overall_mshr_hits::total        22944                       # number of overall MSHR hits
system.cpu.dcache.demand_mshr_misses::.cpu.data        12690                       # number of demand (read+write) MSHR misses
system.cpu.dcache.demand_mshr_misses::total        12690                       # number of demand (read+write) MSHR misses
system.cpu.dcache.overall_mshr_misses::.cpu.data        12690                       # number of overall MSHR misses
system.cpu.dcache.overall_mshr_misses::.cpu.dcache.prefetcher         4373                       # number of overall MSHR misses
system.cpu.dcache.overall_mshr_misses::total        17063                       # number of overall MSHR misses
system.cpu.dcache.demand_mshr_miss_latency::.cpu.data    585064797                       # number of demand (read+write) MSHR miss cycles
system.cpu.dcache.demand_mshr_miss_latency::total    585064797                       # number of demand (read+write) MSHR miss cycles
system.cpu.dcache.overall_mshr_miss_latency::.cpu.data    585064797                       # number of overall MSHR miss cycles
system.cpu.dcache.overall_mshr_miss_latency::.cpu.dcache.prefetcher    251758912                       # number of overall MSHR miss cycles
system.cpu.dcache.overall_mshr_miss_latency::total    836823709                       # number of overall MSHR miss cycles
system.cpu.dcache.demand_mshr_miss_rate::.cpu.data     0.014691                       # mshr miss rate for demand accesses
system.cpu.dcache.demand_mshr_miss_rate::total     0.014691                       # mshr miss rate for demand accesses
system.cpu.dcache.overall_mshr_miss_rate::.cpu.data     0.014691                       # mshr miss rate for overall accesses
system.cpu.dcache.overall_mshr_miss_rate::.cpu.dcache.prefetcher          inf                       # mshr miss rate for overall accesses
system.cpu.dcache.overall_mshr_miss_rate::total     0.019754                       # mshr miss rate for overall accesses
system.cpu.dcache.demand_avg_mshr_miss_latency::.cpu.data 46104.396927                       # average overall mshr miss latency
system.cpu.dcache.demand_avg_mshr_miss_latency::total 46104.396927                       # average overall mshr miss latency
system.cpu.dcache.overall_avg_mshr_miss_latency::.cpu.data 46104.396927                       # average overall mshr miss latency
system.cpu.dcache.overall_avg_mshr_miss_latency::.cpu.dcache.prefetcher 57571.212440                       # average overall mshr miss latency
system.cpu.dcache.overall_avg_mshr_miss_latency::total 49043.175819                       # average overall mshr miss latency
system.cpu.dcache.replacements                  16039                       # number of replacements
system.cpu.dcache.ReadReq_hits::.cpu.data       607643                       # number of ReadReq hits
system.cpu.dcache.ReadReq_hits::total          607643                       # number of ReadReq hits
system.cpu.dcache.ReadReq_misses::.cpu.data        33583                       # number of ReadReq misses
system.cpu.dcache.ReadReq_misses::total         33583                       # number of ReadReq misses
system.cpu.dcache.ReadReq_miss_latency::.cpu.data   1624704400                       # number of ReadReq miss cycles
system.cpu.dcache.ReadReq_miss_latency::total   1624704400                       # number of ReadReq miss cycles
system.cpu.dcache.ReadReq_accesses::.cpu.data       641226                       # number of ReadReq accesses(hits+misses)
system.cpu.dcache.ReadReq_accesses::total       641226                       # number of ReadReq accesses(hits+misses)
system.cpu.dcache.ReadReq_miss_rate::.cpu.data     0.052373                       # miss rate for ReadReq accesses
system.cpu.dcache.ReadReq_miss_rate::total     0.052373                       # miss rate for ReadReq accesses
system.cpu.dcache.ReadReq_avg_miss_latency::.cpu.data 48378.774975                       # average ReadReq miss latency
system.cpu.dcache.ReadReq_avg_miss_latency::total 48378.774975                       # average ReadReq miss latency
system.cpu.dcache.ReadReq_mshr_hits::.cpu.data        22890                       # number of ReadReq MSHR hits
system.cpu.dcache.ReadReq_mshr_hits::total        22890                       # number of ReadReq MSHR hits
system.cpu.dcache.ReadReq_mshr_misses::.cpu.data        10693                       # number of ReadReq MSHR misses
system.cpu.dcache.ReadReq_mshr_misses::total        10693                       # number of ReadReq MSHR misses
system.cpu.dcache.ReadReq_mshr_miss_latency::.cpu.data    486426000                       # number of ReadReq MSHR miss cycles
system.cpu.dcache.ReadReq_mshr_miss_latency::total    486426000                       # number of ReadReq MSHR miss cycles
system.cpu.dcache.ReadReq_mshr_miss_rate::.cpu.data     0.016676                       # mshr miss rate for ReadReq accesses
system.cpu.dcache.ReadReq_mshr_miss_rate::total     0.016676                       # mshr miss rate for ReadReq accesses
system.cpu.dcache.ReadReq_avg_mshr_miss_latency::.cpu.data 45490.133732                       # average ReadReq mshr miss latency
system.cpu.dcache.ReadReq_avg_mshr_miss_latency::total 45490.133732                       # average ReadReq mshr miss latency
system.cpu.dcache.WriteReq_hits::.cpu.data       220519                       # number of WriteReq hits
system.cpu.dcache.WriteReq_hits::total         220519                       # number of WriteReq hits
system.cpu.dcache.WriteReq_misses::.cpu.data         2051                       # number of WriteReq misses
system.cpu.dcache.WriteReq_misses::total         2051                       # number of WriteReq misses
system.cpu.dcache.WriteReq_miss_latency::.cpu.data    102983197                       # number of WriteReq miss cycles
system.cpu.dcache.WriteReq_miss_latency::total    102983197                       # number of WriteReq miss cycles
system.cpu.dcache.WriteReq_accesses::.cpu.data       222570                       # number of WriteReq accesses(hits+misses)
system.cpu.dcache.WriteReq_accesses::total       222570                       # number of WriteReq accesses(hits+misses)
system.cpu.dcache.WriteReq_miss_rate::.cpu.data     0.009215                       # miss rate for WriteReq accesses
system.cpu.dcache.WriteReq_miss_rate::total     0.009215                       # miss rate for WriteReq accesses
system.cpu.dcache.WriteReq_avg_miss_latency::.cpu.data 50211.212579                       # average WriteReq miss latency
system.cpu.dcache.WriteReq_avg_miss_latency::total 50211.212579                       # average WriteReq miss latency
system.cpu.dcache.WriteReq_mshr_hits::.cpu.data           54                       # number of WriteReq MSHR hits
system.cpu.dcache.WriteReq_mshr_hits::total           54                       # number of WriteReq MSHR hits
system.cpu.dcache.WriteReq_mshr_misses::.cpu.data         1997                       # number of WriteReq MSHR misses
[...]
system.l2cache.demand_mshr_miss_rate::.cpu.inst     0.461988                       # mshr miss rate for demand accesses
system.l2cache.demand_mshr_miss_rate::.cpu.data     0.476190                       # mshr miss rate for demand accesses
system.l2cache.demand_mshr_miss_rate::.cpu.dcache.prefetcher     0.529412                       # mshr miss rate for demand accesses
system.l2cache.demand_mshr_miss_rate::total     0.468379                       # mshr miss rate for demand accesses
system.l2cache.overall_mshr_miss_rate::.cpu.inst     0.461988                       # mshr miss rate for overall accesses
system.l2cache.overall_mshr_miss_rate::.cpu.data     0.476190                       # mshr miss rate for overall accesses
system.l2cache.overall_mshr_miss_rate::.cpu.dcache.prefetcher     0.529412                       # mshr miss rate for overall accesses
system.l2cache.overall_mshr_miss_rate::.l2cache.prefetcher          inf                       # mshr miss rate for overall accesses
system.l2cache.overall_mshr_miss_rate::total     0.472332                       # mshr miss rate for overall accesses
system.l2cache.demand_avg_mshr_miss_latency::.cpu.inst 59263.291139                       # average overall mshr miss latency
system.l2cache.demand_avg_mshr_miss_latency::.cpu.data 60011.428571                       # average overall mshr miss latency
system.l2cache.demand_avg_mshr_miss_latency::.cpu.dcache.prefetcher 56488.111111                       # average overall mshr miss latency
system.l2cache.demand_avg_mshr_miss_latency::total 59378.873418                       # average overall mshr miss latency
system.l2cache.overall_avg_mshr_miss_latency::.cpu.inst 59263.291139                       # average overall mshr miss latency
system.l2cache.overall_avg_mshr_miss_latency::.cpu.data 60011.428571                       # average overall mshr miss latency
system.l2cache.overall_avg_mshr_miss_latency::.cpu.dcache.prefetcher 56488.111111                       # average overall mshr miss latency
system.l2cache.overall_avg_mshr_miss_latency::.l2cache.prefetcher 65398.500000                       # average overall mshr miss latency
system.l2cache.overall_avg_mshr_miss_latency::total 59429.246862                       # average overall mshr miss latency
system.l2cache.replacements                       245                       # number of replacements
system.l2cache.WritebackDirty_hits::.writebacks           39                       # number of WritebackDirty hits
system.l2cache.WritebackDirty_hits::total           39                       # number of WritebackDirty hits
system.l2cache.WritebackDirty_accesses::.writebacks           39                       # number of WritebackDirty accesses(hits+misses)
system.l2cache.WritebackDirty_accesses::total           39                       # number of WritebackDirty accesses(hits+misses)
system.l2cache.CleanEvict_mshr_misses::.writebacks            6                       # number of CleanEvict MSHR misses
system.l2cache.CleanEvict_mshr_misses::total            6                       # number of CleanEvict MSHR misses
system.l2cache.CleanEvict_mshr_miss_rate::.writebacks          inf                       # mshr miss rate for CleanEvict accesses
system.l2cache.CleanEvict_mshr_miss_rate::total          inf                       # mshr miss rate for CleanEvict accesses
system.l2cache.HardPFReq_mshr_misses::.l2cache.prefetcher            2                       # number of HardPFReq MSHR misses
system.l2cache.HardPFReq_mshr_misses::total            2                       # number of HardPFReq MSHR misses
system.l2cache.HardPFReq_mshr_miss_latency::.l2cache.prefetcher       130797                       # number of HardPFReq MSHR miss cycles
system.l2cache.HardPFReq_mshr_miss_latency::total       130797                       # number of HardPFReq MSHR miss cycles
system.l2cache.HardPFReq_mshr_miss_rate::.l2cache.prefetcher          inf                       # mshr miss rate for HardPFReq accesses
system.l2cache.HardPFReq_mshr_miss_rate::total          inf                       # mshr miss rate for HardPFReq accesses
system.l2cache.HardPFReq_avg_mshr_miss_latency::.l2cache.prefetcher 65398.500000                       # average HardPFReq mshr miss latency
system.l2cache.HardPFReq_avg_mshr_miss_latency::total 65398.500000                       # average HardPFReq mshr miss latency
system.l2cache.ReadExReq_hits::.cpu.data            2                       # number of ReadExReq hits
system.l2cache.ReadExReq_hits::total                2                       # number of ReadExReq hits
system.l2cache.ReadExReq_misses::.cpu.data            6                       # number of ReadExReq misses
system.l2cache.ReadExReq_misses::total              6                       # number of ReadExReq misses
system.l2cache.ReadExReq_miss_latency::.cpu.data       423600                       # number of ReadExReq miss cycles
system.l2cache.ReadExReq_miss_latency::total       423600                       # number of ReadExReq miss cycles
system.l2cache.ReadExReq_accesses::.cpu.data            8                       # number of ReadExReq accesses(hits+misses)
system.l2cache.ReadExReq_accesses::total            8                       # number of ReadExReq accesses(hits+misses)
system.l2cache.ReadExReq_miss_rate::.cpu.data     0.750000                       # miss rate for ReadExReq accesses
system.l2cache.ReadExReq_miss_rate::total     0.750000                       # miss rate for ReadExReq accesses
system.l2cache.ReadExReq_avg_miss_latency::.cpu.data        70600                       # average ReadExReq miss latency
system.l2cache.ReadExReq_avg_miss_latency::total        70600                       # average ReadExReq miss latency
system.l2cache.ReadExReq_mshr_misses::.cpu.data            6                       # number of ReadExReq MSHR misses
system.l2cache.ReadExReq_mshr_misses::total            6                       # number of ReadExReq MSHR misses
system.l2cache.ReadExReq_mshr_miss_latency::.cpu.data       375600                       # number of ReadExReq MSHR miss cycles
system.l2cache.ReadExReq_mshr_miss_latency::total       375600                       # number of ReadExReq MSHR miss cycles
system.l2cache.ReadExReq_mshr_miss_rate::.cpu.data     0.750000                       # mshr miss rate for ReadExReq accesses
system.l2cache.ReadExReq_mshr_miss_rate::total     0.750000                       # mshr miss rate for ReadExReq accesses
system.l2cache.ReadExReq_avg_mshr_miss_latency::.cpu.data        62600                       # average ReadExReq mshr miss latency
system.l2cache.ReadExReq_avg_mshr_miss_latency::total        62600                       # average ReadExReq mshr miss latency
system.l2cache.ReadSharedReq_hits::.cpu.inst          184                       # number of ReadSharedReq hits
system.l2cache.ReadSharedReq_hits::.cpu.data           75                       # number of ReadSharedReq hits
system.l2cache.ReadSharedReq_hits::.cpu.dcache.prefetcher            7                       # number of ReadSharedReq hits
system.l2cache.ReadSharedReq_hits::total          266                       # number of ReadSharedReq hits
system.l2cache.ReadSharedReq_misses::.cpu.inst          158                       # number of ReadSharedReq misses
system.l2cache.ReadSharedReq_misses::.cpu.data           64                       # number of ReadSharedReq misses
system.l2cache.ReadSharedReq_misses::.cpu.dcache.prefetcher           10                       # number of ReadSharedReq misses
system.l2cache.ReadSharedReq_misses::total          232                       # number of ReadSharedReq misses
system.l2cache.ReadSharedReq_miss_latency::.cpu.inst     10619600                       # number of ReadSharedReq miss cycles
system.l2cache.ReadSharedReq_miss_latency::.cpu.data      4337200                       # number of ReadSharedReq miss cycles
system.l2cache.ReadSharedReq_miss_latency::.cpu.dcache.prefetcher       593592                       # number of ReadSharedReq miss cycles
system.l2cache.ReadSharedReq_miss_latency::total     15550392                       # number of ReadSharedReq miss cycles
system.l2cache.ReadSharedReq_accesses::.cpu.inst          342                       # number of ReadSharedReq accesses(hits+misses)
system.l2cache.ReadSharedReq_accesses::.cpu.data          139                       # number of ReadSharedReq accesses(hits+misses)
system.l2cache.ReadSharedReq_accesses::.cpu.dcache.prefetcher           17                       # number of ReadSharedReq accesses(hits+misses)
system.l2cache.ReadSharedReq_accesses::total          498                       # number of ReadSharedReq accesses(hits+misses)
system.l2cache.ReadSharedReq_miss_rate::.cpu.inst     0.461988                       # miss rate for ReadSharedReq accesses
system.l2cache.ReadSharedReq_miss_rate::.cpu.data     0.460432                       # miss rate for ReadSharedReq accesses
system.l2cache.ReadSharedReq_miss_rate::.cpu.dcache.prefetcher     0.588235                       # miss rate for ReadSharedReq accesses
system.l2cache.ReadSharedReq_miss_rate::total     0.465863                       # miss rate for ReadSharedReq accesses
system.l2cache.ReadSharedReq_avg_miss_latency::.cpu.inst 67212.658228                       # average ReadSharedReq miss latency
system.l2cache.ReadSharedReq_avg_miss_latency::.cpu.data 67768.750000                       # average ReadSharedReq miss latency
system.l2cache.ReadSharedReq_avg_miss_latency::.cpu.dcache.prefetcher 59359.200000                       # average ReadSharedReq miss latency
system.l2cache.ReadSharedReq_avg_miss_latency::total 67027.551724                       # average ReadSharedReq miss latency
system.l2cache.ReadSharedReq_mshr_hits::.cpu.dcache.prefetcher            1                       # number of ReadSharedReq MSHR hits
system.l2cache.ReadSharedReq_mshr_hits::total            1                       # number of ReadSharedReq MSHR hits
system.l2cache.ReadSharedReq_mshr_misses::.cpu.inst          158                       # number of ReadSharedReq MSHR misses
system.l2cache.ReadSharedReq_mshr_misses::.cpu.data           64                       # number of ReadSharedReq MSHR misses
system.l2cache.ReadSharedReq_mshr_misses::.cpu.dcache.prefetcher            9                       # number of ReadSharedReq MSHR misses
system.l2cache.ReadSharedReq_mshr_misses::total          231                       # number of ReadSharedReq MSHR misses
system.l2cache.ReadSharedReq_mshr_miss_latency::.cpu.inst      9363600                       # number of ReadSharedReq MSHR miss cycles
system.l2cache.ReadSharedReq_mshr_miss_latency::.cpu.data      3825200                       # number of ReadSharedReq MSHR miss cycles
system.l2cache.ReadSharedReq_mshr_miss_latency::.cpu.dcache.prefetcher       508393                       # number of ReadSharedReq MSHR miss cycles
system.l2cache.ReadSharedReq_mshr_miss_latency::total     13697193                       # number of ReadSharedReq MSHR miss cycles
system.l2cache.ReadSharedReq_mshr_miss_rate::.cpu.inst     0.461988                       # mshr miss rate for ReadSharedReq accesses
system.l2cache.ReadSharedReq_mshr_miss_rate::.cpu.data     0.460432                       # mshr miss rate for ReadSharedReq accesses
system.l2cache.ReadSharedReq_mshr_miss_rate::.cpu.dcache.prefetcher     0.529412                       # mshr miss rate for ReadSharedReq accesses
system.l2cache.ReadSharedReq_mshr_miss_rate::total     0.463855                       # mshr miss rate for ReadSharedReq accesses
system.l2cache.ReadSharedReq_avg_mshr_miss_latency::.cpu.inst 59263.291139                       # average ReadSharedReq mshr miss latency
system.l2cache.ReadSharedReq_avg_mshr_miss_latency::.cpu.data 59768.750000                       # average ReadSharedReq mshr miss latency
system.l2cache.ReadSharedReq_avg_mshr_miss_latency::.cpu.dcache.prefetcher 56488.111111                       # average ReadSharedReq mshr miss latency
system.l2cache.ReadSharedReq_avg_mshr_miss_latency::total 59295.207792                       # average ReadSharedReq mshr miss latency
system.l2cache.prefetcher.pwrStateResidencyTicks::UNDEFINED    118546800                       # Cumulative time (in ticks) in various power states
system.l2cache.tags.pwrStateResidencyTicks::UNDEFINED    118546800                       # Cumulative time (in ticks) in various power states
system.l2cache.tags.tagsinuse                    4096                       # Cycle average of tags in use
system.l2cache.tags.total_refs                  13632                       # Total number of references to valid blocks.
system.l2cache.tags.sampled_refs                 4341                       # Sample count of references to valid blocks.
system.l2cache.tags.avg_refs                 3.140290                       # Average number of references to valid blocks.
system.l2cache.tags.warmup_cycle                    0                       # Cycle when the warmup percentage was hit.
system.l2cache.tags.occ_blocks::.writebacks    34.756575                       # Average occupied blocks per requestor
system.l2cache.tags.occ_blocks::.cpu.inst  1123.616517                       # Average occupied blocks per requestor
system.l2cache.tags.occ_blocks::.cpu.data  1855.896196                       # Average occupied blocks per requestor
system.l2cache.tags.occ_blocks::.cpu.dcache.prefetcher   950.010854                       # Average occupied blocks per requestor
system.l2cache.tags.occ_blocks::.l2cache.prefetcher   131.719857                       # Average occupied blocks per requestor
system.l2cache.tags.occ_percent::.writebacks     0.008485                       # Average percentage of cache occupancy
system.l2cache.tags.occ_percent::.cpu.inst     0.274320                       # Average percentage of cache occupancy
system.l2cache.tags.occ_percent::.cpu.data     0.453100                       # Average percentage of cache occupancy
system.l2cache.tags.occ_percent::.cpu.dcache.prefetcher     0.231936                       # Average percentage of cache occupancy
system.l2cache.tags.occ_percent::.l2cache.prefetcher     0.032158                       # Average percentage of cache occupancy
system.l2cache.tags.occ_percent::total              1                       # Average percentage of cache occupancy
system.l2cache.tags.occ_task_id_blocks::1022         1018                       # Occupied blocks per task id
system.l2cache.tags.occ_task_id_blocks::1024         3078                       # Occupied blocks per task id
system.l2cache.tags.age_task_id_blocks_1022::0            8                       # Occupied blocks per task id
system.l2cache.tags.age_task_id_blocks_1022::2            4                       # Occupied blocks per task id
system.l2cache.tags.age_task_id_blocks_1022::4         1006                       # Occupied blocks per task id
system.l2cache.tags.age_task_id_blocks_1024::0          162                       # Occupied blocks per task id
system.l2cache.tags.age_task_id_blocks_1024::1           35                       # Occupied blocks per task id
system.l2cache.tags.age_task_id_blocks_1024::2           36                       # Occupied blocks per task id
system.l2cache.tags.age_task_id_blocks_1024::4         2845                       # Occupied blocks per task id
system.l2cache.tags.occ_task_id_percent::1022     0.248535                       # Percentage of cache occupancy per task id
system.l2cache.tags.occ_task_id_percent::1024     0.751465                       # Percentage of cache occupancy per task id
system.l2cache.tags.tag_accesses                 8333                       # Number of tag accesses
system.l2cache.tags.data_accesses                8333                       # Number of data accesses
system.mem_ctrl.pwrStateResidencyTicks::UNDEFINED    118546800                       # Cumulative time (in ticks) in various power states
system.mem_ctrl.bytes_read::.cpu.inst           10048                       # Number of bytes read from this memory
system.mem_ctrl.bytes_read::.cpu.data            4480                       # Number of bytes read from this memory
system.mem_ctrl.bytes_read::.cpu.dcache.prefetcher          576                       # Number of bytes read from this memory
system.mem_ctrl.bytes_read::.l2cache.prefetcher          128                       # Number of bytes read from this memory
system.mem_ctrl.bytes_read::total               15232                       # Number of bytes read from this memory
system.mem_ctrl.bytes_inst_read::.cpu.inst        10048                       # Number of instructions bytes read from this memory
system.mem_ctrl.bytes_inst_read::total          10048                       # Number of instructions bytes read from this memory
system.mem_ctrl.bytes_written::.writebacks          768                       # Number of bytes written to this memory
system.mem_ctrl.bytes_written::total              768                       # Number of bytes written to this memory
system.mem_ctrl.num_reads::.cpu.inst              157                       # Number of read requests responded to by this memory
system.mem_ctrl.num_reads::.cpu.data               70                       # Number of read requests responded to by this memory
system.mem_ctrl.num_reads::.cpu.dcache.prefetcher            9                       # Number of read requests responded to by this memory
system.mem_ctrl.num_reads::.l2cache.prefetcher            2                       # Number of read requests responded to by this memory
system.mem_ctrl.num_reads::total                  238                       # Number of read requests responded to by this memory
system.mem_ctrl.num_writes::.writebacks            12                       # Number of write requests responded to by this memory
system.mem_ctrl.num_writes::total                  12                       # Number of write requests responded to by this memory
system.mem_ctrl.bw_read::.cpu.inst           84759774                       # Total read bandwidth from this memory (bytes/s)
system.mem_ctrl.bw_read::.cpu.data           37790982                       # Total read bandwidth from this memory (bytes/s)
system.mem_ctrl.bw_read::.cpu.dcache.prefetcher      4858841                       # Total read bandwidth from this memory (bytes/s)
system.mem_ctrl.bw_read::.l2cache.prefetcher      1079742                       # Total read bandwidth from this memory (bytes/s)
system.mem_ctrl.bw_read::total              128489339                       # Total read bandwidth from this memory (bytes/s)
system.mem_ctrl.bw_inst_read::.cpu.inst      84759774                       # Instruction read bandwidth from this memory (bytes/s)
system.mem_ctrl.bw_inst_read::total          84759774                       # Instruction read bandwidth from this memory (bytes/s)
system.mem_ctrl.bw_write::.writebacks         6478454                       # Write bandwidth from this memory (bytes/s)
system.mem_ctrl.bw_write::total               6478454                       # Write bandwidth from this memory (bytes/s)
system.mem_ctrl.bw_total::.writebacks         6478454                       # Total bandwidth to/from this memory (bytes/s)
system.mem_ctrl.bw_total::.cpu.inst          84759774                       # Total bandwidth to/from this memory (bytes/s)
system.mem_ctrl.bw_total::.cpu.data          37790982                       # Total bandwidth to/from this memory (bytes/s)
system.mem_ctrl.bw_total::.cpu.dcache.prefetcher      4858841                       # Total bandwidth to/from this memory (bytes/s)
system.mem_ctrl.bw_total::.l2cache.prefetcher      1079742                       # Total bandwidth to/from this memory (bytes/s)
system.mem_ctrl.bw_total::total             134967793                       # Total bandwidth to/from this memory (bytes/s)

---------- End Simulation Statistics   ----------
