
---------- Begin Simulation Statistics ----------
final_tick                                 1221700000                       # Number of ticks from beginning of simulation (restored from checkpoints and never reset)
host_inst_rate                                 189569                       # Simulator instruction rate (inst/s)
host_mem_usage                                4406844                       # Number of bytes of host memory used
host_op_rate                                   341102                       # Simulator op (including micro ops) rate (op/s)
host_seconds                                    13.17                       # Real time elapsed on the host
host_tick_rate                               92790728                       # Simulator tick rate (ticks/s)
sim_freq                                 1000000000000                       # Frequency of simulated ticks
sim_insts                                     2495887                       # Number of instructions simulated
sim_ops                                       4491013                       # Number of ops (including micro ops) simulated
sim_seconds                                  0.001222                       # Number of seconds simulated
sim_ticks                                  1221700000                       # Number of ticks simulated
system.cpu.branchPred.BTBCorrect                    0                       # Number of correct BTB predictions (this stat may not work properly.
system.cpu.branchPred.BTBHitPct              0.000000                       # BTB Hit Percentage
system.cpu.branchPred.BTBHits                       0                       # Number of BTB hits
system.cpu.branchPred.BTBLookups               505165                       # Number of BTB lookups
system.cpu.branchPred.RASInCorrect                  8                       # Number of incorrect RAS predictions.
system.cpu.branchPred.condIncorrect             24373                       # Number of conditional branches incorrect
system.cpu.branchPred.condPredicted            530894                       # Number of conditional branches predicted
system.cpu.branchPred.indirectHits             270862                       # Number of indirect target hits.
system.cpu.branchPred.indirectLookups          505165                       # Number of indirect predictor lookups.
system.cpu.branchPred.indirectMisses           234303                       # Number of indirect misses.
system.cpu.branchPred.lookups                  571286                       # Number of BP lookups
system.cpu.branchPred.usedRAS                   18405                       # Number of times the RAS was used to get a target.
system.cpu.branchPredindirectMispredicted        12192                       # Number of mispredicted indirect branches.
system.cpu.cc_regfile_reads                   2858435                       # number of cc regfile reads
system.cpu.cc_regfile_writes                  2188794                       # number of cc regfile writes
system.cpu.commit.amos                              0                       # Number of atomic instructions committed
system.cpu.commit.branchMispredicts             24489                       # The number of times a branch was mispredicted
system.cpu.commit.branches                     425852                       # Number of branches committed
system.cpu.commit.bw_lim_events                754689                       # number cycles where commit BW limit reached
system.cpu.commit.commitNonSpecStalls             760                       # The number of times commit has been forced to stall to communicate backwards
system.cpu.commit.commitSquashedInsts          897520                       # The number of squashed insts skipped by commit
system.cpu.commit.committedInsts              2495887                       # Number of instructions committed
system.cpu.commit.committedOps                4491013                       # Number of ops (including micro ops) committed
system.cpu.commit.committed_per_cycle::samples      2645105                       # Number of insts commited each cycle
system.cpu.commit.committed_per_cycle::mean     1.697858                       # Number of insts commited each cycle
system.cpu.commit.committed_per_cycle::stdev     1.738201                       # Number of insts commited each cycle
system.cpu.commit.committed_per_cycle::underflows            0      0.00%      0.00% # Number of insts commited each cycle
system.cpu.commit.committed_per_cycle::0      1180669     44.64%     44.64% # Number of insts commited each cycle
system.cpu.commit.committed_per_cycle::1       219520      8.30%     52.94% # Number of insts commited each cycle
system.cpu.commit.committed_per_cycle::2       217944      8.24%     61.17% # Number of insts commited each cycle
system.cpu.commit.committed_per_cycle::3       272283     10.29%     71.47% # Number of insts commited each cycle
system.cpu.commit.committed_per_cycle::4       754689     28.53%    100.00% # Number of insts commited each cycle
system.cpu.commit.committed_per_cycle::overflows            0      0.00%    100.00% # Number of insts commited each cycle
system.cpu.commit.committed_per_cycle::min_value            0                       # Number of insts commited each cycle
system.cpu.commit.committed_per_cycle::max_value            4                       # Number of insts commited each cycle
system.cpu.commit.committed_per_cycle::total      2645105                       # Number of insts commited each cycle
system.cpu.commit.fp_insts                     125919                       # Number of committed floating point instructions.
system.cpu.commit.function_calls                16455                       # Number of function calls committed.
system.cpu.commit.int_insts                   4394524                       # Number of committed integer instructions.
system.cpu.commit.loads                        605823                       # Number of loads committed
system.cpu.commit.membars                           1                       # Number of memory barriers committed
system.cpu.commit.op_class_0::No_OpClass        24617      0.55%      0.55% # Class of committed instruction
system.cpu.commit.op_class_0::IntAlu          3482532     77.54%     78.09% # Class of committed instruction
system.cpu.commit.op_class_0::IntMult            3552      0.08%     78.17% # Class of committed instruction
system.cpu.commit.op_class_0::IntDiv            37654      0.84%     79.01% # Class of committed instruction
system.cpu.commit.op_class_0::FloatAdd           4941      0.11%     79.12% # Class of committed instruction
system.cpu.commit.op_class_0::FloatCmp              0      0.00%     79.12% # Class of committed instruction
system.cpu.commit.op_class_0::FloatCvt           1248      0.03%     79.15% # Class of committed instruction
system.cpu.commit.op_class_0::FloatMult             0      0.00%     79.15% # Class of committed instruction
system.cpu.commit.op_class_0::FloatMultAcc            0      0.00%     79.15% # Class of committed instruction
system.cpu.commit.op_class_0::FloatDiv              0      0.00%     79.15% # Class of committed instruction
system.cpu.commit.op_class_0::FloatMisc             0      0.00%     79.15% # Class of committed instruction
system.cpu.commit.op_class_0::FloatSqrt             0      0.00%     79.15% # Class of committed instruction
system.cpu.commit.op_class_0::SimdAdd            6270      0.14%     79.29% # Class of committed instruction
system.cpu.commit.op_class_0::SimdAddAcc            0      0.00%     79.29% # Class of committed instruction
system.cpu.commit.op_class_0::SimdAlu           19556      0.44%     79.72% # Class of committed instruction
system.cpu.commit.op_class_0::SimdCmp               0      0.00%     79.72% # Class of committed instruction
system.cpu.commit.op_class_0::SimdCvt           20446      0.46%     80.18% # Class of committed instruction
system.cpu.commit.op_class_0::SimdMisc          25091      0.56%     80.74% # Class of committed instruction
system.cpu.commit.op_class_0::SimdMult              0      0.00%     80.74% # Class of committed instruction
system.cpu.commit.op_class_0::SimdMultAcc            0      0.00%     80.74% # Class of committed instruction
system.cpu.commit.op_class_0::SimdShift          1316      0.03%     80.77% # Class of committed instruction
system.cpu.commit.op_class_0::SimdShiftAcc            0      0.00%     80.77% # Class of committed instruction
system.cpu.commit.op_class_0::SimdDiv               0      0.00%     80.77% # Class of committed instruction
system.cpu.commit.op_class_0::SimdSqrt              0      0.00%     80.77% # Class of committed instruction
system.cpu.commit.op_class_0::SimdFloatAdd            0      0.00%     80.77% # Class of committed instruction
system.cpu.commit.op_class_0::SimdFloatAlu            0      0.00%     80.77% # Class of committed instruction
system.cpu.commit.op_class_0::SimdFloatCmp            0      0.00%     80.77% # Class of committed instruction
system.cpu.commit.op_class_0::SimdFloatCvt            0      0.00%     80.77% # Class of committed instruction
system.cpu.commit.op_class_0::SimdFloatDiv            0      0.00%     80.77% # Class of committed instruction
system.cpu.commit.op_class_0::SimdFloatMisc            0      0.00%     80.77% # Class of committed instruction
system.cpu.commit.op_class_0::SimdFloatMult            0      0.00%     80.77% # Class of committed instruction
system.cpu.commit.op_class_0::SimdFloatMultAcc            0      0.00%     80.77% # Class of committed instruction
system.cpu.commit.op_class_0::SimdFloatSqrt            0      0.00%     80.77% # Class of committed instruction
system.cpu.commit.op_class_0::SimdReduceAdd            0      0.00%     80.77% # Class of committed instruction
system.cpu.commit.op_class_0::SimdReduceAlu            0      0.00%     80.77% # Class of committed instruction
system.cpu.commit.op_class_0::SimdReduceCmp            0      0.00%     80.77% # Class of committed instruction
system.cpu.commit.op_class_0::SimdFloatReduceAdd            0      0.00%     80.77% # Class of committed instruction
system.cpu.commit.op_class_0::SimdFloatReduceCmp            0      0.00%     80.77% # Class of committed instruction
system.cpu.commit.op_class_0::SimdAes               0      0.00%     80.77% # Class of committed instruction
system.cpu.commit.op_class_0::SimdAesMix            0      0.00%     80.77% # Class of committed instruction
system.cpu.commit.op_class_0::SimdSha1Hash            0      0.00%     80.77% # Class of committed instruction
system.cpu.commit.op_class_0::SimdSha1Hash2            0      0.00%     80.77% # Class of committed instruction
system.cpu.commit.op_class_0::SimdSha256Hash            0      0.00%     80.77% # Class of committed instruction
system.cpu.commit.op_class_0::SimdSha256Hash2            0      0.00%     80.77% # Class of committed instruction
system.cpu.commit.op_class_0::SimdShaSigma2            0      0.00%     80.77% # Class of committed instruction
system.cpu.commit.op_class_0::SimdShaSigma3            0      0.00%     80.77% # Class of committed instruction
system.cpu.commit.op_class_0::SimdPredAlu            0      0.00%     80.77% # Class of committed instruction
system.cpu.commit.op_class_0::MemRead          580297     12.92%     93.69% # Class of committed instruction
system.cpu.commit.op_class_0::MemWrite         243460      5.42%     99.11% # Class of committed instruction
system.cpu.commit.op_class_0::FloatMemRead        25526      0.57%     99.68% # Class of committed instruction
system.cpu.commit.op_class_0::FloatMemWrite        14507      0.32%    100.00% # Class of committed instruction
system.cpu.commit.op_class_0::IprAccess             0      0.00%    100.00% # Class of committed instruction
system.cpu.commit.op_class_0::InstPrefetch            0      0.00%    100.00% # Class of committed instruction
system.cpu.commit.op_class_0::total           4491013                       # Class of committed instruction
system.cpu.commit.refs                         863790                       # Number of memory references committed
system.cpu.commit.swp_count                         0                       # Number of s/w prefetches committed
system.cpu.commit.vec_insts                         0                       # Number of committed Vector instructions.
system.cpu.committedInsts                     2495887                       # Number of Instructions Simulated
system.cpu.committedOps                       4491013                       # Number of Ops (including micro ops) Simulated
system.cpu.cpi                               1.223714                       # CPI: Cycles Per Instruction
system.cpu.cpi_total                         1.223714                       # CPI: Total CPI of All Threads
system.cpu.dcache.prefetcher.num_hwpf_issued         8044                       # number of hwpf issued
system.cpu.dcache.prefetcher.pfBufferHit        33751                       # number of redundant prefetches already in prefetch queue
system.cpu.dcache.prefetcher.pfIdentified        48773                       # number of prefetch candidates identified
system.cpu.dcache.prefetcher.pfInCache              0                       # number of redundant prefetches already in cache/mshr dropped
system.cpu.dcache.prefetcher.pfRemovedFull            0                       # number of prefetches dropped due to prefetch queue size
system.cpu.dcache.prefetcher.pfSpanPage          4515                       # number of prefetches that crossed the page
system.cpu.decode.BlockedCycles               1028756                       # Number of cycles decode is blocked
system.cpu.decode.DecodedInsts                5606360                       # Number of instructions handled by decode
system.cpu.decode.IdleCycles                   359025                       # Number of cycles decode is idle
system.cpu.decode.RunCycles                   1386923                       # Number of cycles decode is running
system.cpu.decode.SquashCycles                  24562                       # Number of cycles decode is squashing
system.cpu.decode.UnblockCycles                 90586                       # Number of cycles decode is unblocking
system.cpu.dtb.rdAccesses                      690720                       # TLB accesses on read requests
system.cpu.dtb.rdMisses                          2038                       # TLB misses on read requests
system.cpu.dtb.wrAccesses                      277701                       # TLB accesses on write requests
system.cpu.dtb.wrMisses                           155                       # TLB misses on write requests
system.cpu.fetch.Branches                      571286                       # Number of branches that fetch encountered
system.cpu.fetch.CacheLines                    299158                       # Number of cache lines fetched
system.cpu.fetch.Cycles                       2474012                       # Number of cycles fetch has run and was not squashing or blocked
system.cpu.fetch.IcacheSquashes                  4679                       # Number of outstanding Icache misses that were squashed
system.cpu.fetch.Insts                        3271188                       # Number of instructions fetch has processed
system.cpu.fetch.MiscStallCycles                  143                       # Number of cycles fetch has spent waiting on interrupts, or bad addresses, or out of MSHRs
system.cpu.fetch.PendingQuiesceStallCycles            6                       # Number of stall cycles due to pending quiesce instructions
system.cpu.fetch.PendingTrapStallCycles           776                       # Number of stall cycles due to pending traps
system.cpu.fetch.SquashCycles                   49124                       # Number of cycles fetch has spent squashing
system.cpu.fetch.branchRate                  0.187046                       # Number of branch fetches per cycle
system.cpu.fetch.icacheStallCycles             390353                       # Number of cycles fetch is stalled on an Icache miss
system.cpu.fetch.predictedBranches             289267                       # Number of branches that fetch has predicted taken
system.cpu.fetch.rate                        1.071028                       # Number of inst fetches per cycle
system.cpu.fetch.rateDist::samples            2889852                       # Number of instructions fetched each cycle (Total)
system.cpu.fetch.rateDist::mean              2.036306                       # Number of instructions fetched each cycle (Total)
system.cpu.fetch.rateDist::stdev             1.925915                       # Number of instructions fetched each cycle (Total)
system.cpu.fetch.rateDist::underflows               0      0.00%      0.00% # Number of instructions fetched each cycle (Total)
system.cpu.fetch.rateDist::0                  1292239     44.72%     44.72% # Number of instructions fetched each cycle (Total)
system.cpu.fetch.rateDist::1                    89142      3.08%     47.80% # Number of instructions fetched each cycle (Total)
system.cpu.fetch.rateDist::2                    72960      2.52%     50.33% # Number of instructions fetched each cycle (Total)
system.cpu.fetch.rateDist::3                    92483      3.20%     53.53% # Number of instructions fetched each cycle (Total)
system.cpu.fetch.rateDist::4                  1343028     46.47%    100.00% # Number of instructions fetched each cycle (Total)
system.cpu.fetch.rateDist::overflows                0      0.00%    100.00% # Number of instructions fetched each cycle (Total)
system.cpu.fetch.rateDist::min_value                0                       # Number of instructions fetched each cycle (Total)
system.cpu.fetch.rateDist::max_value                4                       # Number of instructions fetched each cycle (Total)
system.cpu.fetch.rateDist::total              2889852                       # Number of instructions fetched each cycle (Total)
system.cpu.fp_regfile_reads                    210159                       # number of floating regfile reads
system.cpu.fp_regfile_writes                   113356                       # number of floating regfile writes
system.cpu.fuPool.fu_ticks_busy::IntALU(0)    261227200                       # Total ticks fu was busy
system.cpu.fuPool.fu_ticks_busy::IntALU(1)    261227200                       # Total ticks fu was busy
system.cpu.fuPool.fu_ticks_busy::IntALU(2)    261226800                       # Total ticks fu was busy
system.cpu.fuPool.fu_ticks_busy::IntALU(3)    261226800                       # Total ticks fu was busy
system.cpu.fuPool.fu_ticks_busy::IntALU(4)    261226800                       # Total ticks fu was busy
system.cpu.fuPool.fu_ticks_busy::IntALU(5)    261226800                       # Total ticks fu was busy
system.cpu.fuPool.fu_ticks_busy::IntMultDiv(0)      9006000                       # Total ticks fu was busy
system.cpu.fuPool.fu_ticks_busy::IntMultDiv(1)      9005200                       # Total ticks fu was busy
system.cpu.fuPool.fu_ticks_busy::FP_ALU(0)       791600                       # Total ticks fu was busy
system.cpu.fuPool.fu_ticks_busy::FP_ALU(1)       791600                       # Total ticks fu was busy
system.cpu.fuPool.fu_ticks_busy::FP_ALU(2)       791200                       # Total ticks fu was busy
system.cpu.fuPool.fu_ticks_busy::FP_ALU(3)       791200                       # Total ticks fu was busy
system.cpu.fuPool.fu_ticks_busy::FP_MultDiv(0)            0                       # Total ticks fu was busy
system.cpu.fuPool.fu_ticks_busy::FP_MultDiv(1)            0                       # Total ticks fu was busy
system.cpu.fuPool.fu_ticks_busy::SIMD_Unit(0)      7982800                       # Total ticks fu was busy
system.cpu.fuPool.fu_ticks_busy::SIMD_Unit(1)      8372800                       # Total ticks fu was busy
system.cpu.fuPool.fu_ticks_busy::SIMD_Unit(2)      7888000                       # Total ticks fu was busy
system.cpu.fuPool.fu_ticks_busy::SIMD_Unit(3)      8307600                       # Total ticks fu was busy
system.cpu.fuPool.fu_ticks_busy::PredALU(0)            0                       # Total ticks fu was busy
system.cpu.fuPool.fu_ticks_busy::RdWrPort(0)     98244000                       # Total ticks fu was busy
system.cpu.fuPool.fu_ticks_busy::RdWrPort(1)     98305600                       # Total ticks fu was busy
system.cpu.fuPool.fu_ticks_busy::RdWrPort(2)     98165600                       # Total ticks fu was busy
system.cpu.fuPool.fu_ticks_busy::RdWrPort(3)     98204000                       # Total ticks fu was busy
system.cpu.fuPool.fu_ticks_busy::IprPort(0)            0                       # Total ticks fu was busy
system.cpu.fuPool.fu_ticks_busy::total     2014008800                       # Total ticks fu was busy
system.cpu.icache.prefetcher.num_hwpf_issued            0                       # number of hwpf issued
system.cpu.icache.prefetcher.pfBufferHit            0                       # number of redundant prefetches already in prefetch queue
system.cpu.icache.prefetcher.pfIdentified            0                       # number of prefetch candidates identified
system.cpu.icache.prefetcher.pfInCache              0                       # number of redundant prefetches already in cache/mshr dropped
system.cpu.icache.prefetcher.pfRemovedFull            0                       # number of prefetches dropped due to prefetch queue size
system.cpu.icache.prefetcher.pfSpanPage             0                       # number of prefetches that crossed the page
system.cpu.idleCycles                          164399                       # Total number of cycles that the CPU has spent unscheduled due to idling
system.cpu.iew.branchMispredicts                28897                       # Number of branch mispredicts detected at execute
system.cpu.iew.exec_branches                   456832                       # Number of branches executed
system.cpu.iew.exec_nop                             0                       # number of nop insts executed
system.cpu.iew.exec_rate                     1.647367                       # Inst execution rate
system.cpu.iew.exec_refs                       969278                       # number of memory reference insts executed
system.cpu.iew.exec_stores                     277687                       # Number of stores executed
system.cpu.iew.exec_swp                             0                       # number of swp insts executed
system.cpu.iew.iewBlockCycles                  691953                       # Number of cycles IEW is blocking
system.cpu.iew.iewDispLoadInsts                722190                       # Number of dispatched load instructions
system.cpu.iew.iewDispNonSpecInsts                959                       # Number of dispatched non-speculative instructions
system.cpu.iew.iewDispSquashedInsts               585                       # Number of squashed instructions skipped by dispatch
system.cpu.iew.iewDispStoreInsts               287981                       # Number of dispatched store instructions
system.cpu.iew.iewDispatchedInsts             5388495                       # Number of instructions dispatched to IQ
system.cpu.iew.iewExecLoadInsts                691591                       # Number of load instructions executed
system.cpu.iew.iewExecSquashedInsts             34639                       # Number of squashed instructions skipped in execute
system.cpu.iew.iewExecutedInsts               5031471                       # Number of executed instructions
system.cpu.iew.iewIQFullEvents                   3327                       # Number of times the IQ has become full, causing a stall
system.cpu.iew.iewIdleCycles                        0                       # Number of cycles IEW is idle
system.cpu.iew.iewLSQFullEvents                  9294                       # Number of times the LSQ has become full, causing a stall
system.cpu.iew.iewSquashCycles                  24562                       # Number of cycles IEW is squashing
system.cpu.iew.iewUnblockCycles                 15596                       # Number of cycles IEW is unblocking
system.cpu.iew.lsq.thread0.blockedLoads             0                       # Number of blocked loads due to partial load-store forwarding
system.cpu.iew.lsq.thread0.cacheBlocked           634                       # Number of times an access to memory failed due to the cache being blocked
system.cpu.iew.lsq.thread0.forwLoads            53819                       # Number of loads that had data forwarded from stores
system.cpu.iew.lsq.thread0.ignoredResponses          237                       # Number of memory responses ignored because the instruction is squashed
system.cpu.iew.lsq.thread0.invAddrLoads             0                       # Number of loads ignored due to an invalid address
system.cpu.iew.lsq.thread0.invAddrSwpfs             0                       # Number of software prefetches ignored due to an invalid address
system.cpu.iew.lsq.thread0.memOrderViolation           88                       # Number of memory ordering violations
system.cpu.iew.lsq.thread0.rescheduledLoads           10                       # Number of loads that were rescheduled
system.cpu.iew.lsq.thread0.squashedLoads       116365                       # Number of loads squashed
system.cpu.iew.lsq.thread0.squashedStores        30013                       # Number of stores squashed
system.cpu.iew.memOrderViolationEvents             88                       # Number of memory order violations
system.cpu.iew.predictedNotTakenIncorrect        20856                       # Number of branches that were predicted not taken incorrectly
system.cpu.iew.predictedTakenIncorrect           8041                       # Number of branches that were predicted taken incorrectly
system.cpu.iew.wb_consumers                   6868211                       # num instructions consuming a value
system.cpu.iew.wb_count                       5009305                       # cumulative count of insts written-back
system.cpu.iew.wb_fanout                     0.571881                       # average fanout of values written-back
system.cpu.iew.wb_producers                   3927796                       # num instructions producing a value
system.cpu.iew.wb_rate                       1.640109                       # insts written-back per cycle
system.cpu.iew.wb_sent                        5016300                       # cumulative count of insts sent to commit
system.cpu.int_regfile_reads                  7745173                       # number of integer regfile reads
system.cpu.int_regfile_writes                 4237254                       # number of integer regfile writes
system.cpu.ipc                               0.817185                       # IPC: Instructions Per Cycle
system.cpu.ipc_total                         0.817185                       # IPC: Total IPC of All Threads
system.cpu.iq.FU_type_0::No_OpClass             31088      0.61%      0.61% # Type of FU issued
system.cpu.iq.FU_type_0::IntAlu               3918406     77.35%     77.96% # Type of FU issued
system.cpu.iq.FU_type_0::IntMult                 3591      0.07%     78.03% # Type of FU issued
system.cpu.iq.FU_type_0::IntDiv                 41437      0.82%     78.85% # Type of FU issued
system.cpu.iq.FU_type_0::FloatAdd                6610      0.13%     78.98% # Type of FU issued
system.cpu.iq.FU_type_0::FloatCmp                   0      0.00%     78.98% # Type of FU issued
system.cpu.iq.FU_type_0::FloatCvt                1304      0.03%     79.00% # Type of FU issued
system.cpu.iq.FU_type_0::FloatMult                  0      0.00%     79.00% # Type of FU issued
system.cpu.iq.FU_type_0::FloatMultAcc               0      0.00%     79.00% # Type of FU issued
system.cpu.iq.FU_type_0::FloatDiv                   0      0.00%     79.00% # Type of FU issued
system.cpu.iq.FU_type_0::FloatMisc                  0      0.00%     79.00% # Type of FU issued
system.cpu.iq.FU_type_0::FloatSqrt                  0      0.00%     79.00% # Type of FU issued
system.cpu.iq.FU_type_0::SimdAdd                 7040      0.14%     79.14% # Type of FU issued
system.cpu.iq.FU_type_0::SimdAddAcc                 0      0.00%     79.14% # Type of FU issued
system.cpu.iq.FU_type_0::SimdAlu                23602      0.47%     79.61% # Type of FU issued
system.cpu.iq.FU_type_0::SimdCmp                    0      0.00%     79.61% # Type of FU issued
system.cpu.iq.FU_type_0::SimdCvt                22482      0.44%     80.05% # Type of FU issued
system.cpu.iq.FU_type_0::SimdMisc               25797      0.51%     80.56% # Type of FU issued
system.cpu.iq.FU_type_0::SimdMult                   0      0.00%     80.56% # Type of FU issued
system.cpu.iq.FU_type_0::SimdMultAcc                0      0.00%     80.56% # Type of FU issued
system.cpu.iq.FU_type_0::SimdShift               2457      0.05%     80.61% # Type of FU issued
system.cpu.iq.FU_type_0::SimdShiftAcc               0      0.00%     80.61% # Type of FU issued
system.cpu.iq.FU_type_0::SimdDiv                    0      0.00%     80.61% # Type of FU issued
system.cpu.iq.FU_type_0::SimdSqrt                   0      0.00%     80.61% # Type of FU issued
system.cpu.iq.FU_type_0::SimdFloatAdd               0      0.00%     80.61% # Type of FU issued
system.cpu.iq.FU_type_0::SimdFloatAlu               0      0.00%     80.61% # Type of FU issued
system.cpu.iq.FU_type_0::SimdFloatCmp               0      0.00%     80.61% # Type of FU issued
system.cpu.iq.FU_type_0::SimdFloatCvt               0      0.00%     80.61% # Type of FU issued
system.cpu.iq.FU_type_0::SimdFloatDiv               0      0.00%     80.61% # Type of FU issued
system.cpu.iq.FU_type_0::SimdFloatMisc              0      0.00%     80.61% # Type of FU issued
system.cpu.iq.FU_type_0::SimdFloatMult              0      0.00%     80.61% # Type of FU issued
system.cpu.iq.FU_type_0::SimdFloatMultAcc            0      0.00%     80.61% # Type of FU issued
system.cpu.iq.FU_type_0::SimdFloatSqrt              0      0.00%     80.61% # Type of FU issued
system.cpu.iq.FU_type_0::SimdReduceAdd              0      0.00%     80.61% # Type of FU issued
system.cpu.iq.FU_type_0::SimdReduceAlu              0      0.00%     80.61% # Type of FU issued
system.cpu.iq.FU_type_0::SimdReduceCmp              0      0.00%     80.61% # Type of FU issued
system.cpu.iq.FU_type_0::SimdFloatReduceAdd            0      0.00%     80.61% # Type of FU issued
system.cpu.iq.FU_type_0::SimdFloatReduceCmp            0      0.00%     80.61% # Type of FU issued
system.cpu.iq.FU_type_0::SimdAes                    0      0.00%     80.61% # Type of FU issued
system.cpu.iq.FU_type_0::SimdAesMix                 0      0.00%     80.61% # Type of FU issued
system.cpu.iq.FU_type_0::SimdSha1Hash               0      0.00%     80.61% # Type of FU issued
system.cpu.iq.FU_type_0::SimdSha1Hash2              0      0.00%     80.61% # Type of FU issued
system.cpu.iq.FU_type_0::SimdSha256Hash             0      0.00%     80.61% # Type of FU issued
system.cpu.iq.FU_type_0::SimdSha256Hash2            0      0.00%     80.61% # Type of FU issued
system.cpu.iq.FU_type_0::SimdShaSigma2              0      0.00%     80.61% # Type of FU issued
system.cpu.iq.FU_type_0::SimdShaSigma3              0      0.00%     80.61% # Type of FU issued
system.cpu.iq.FU_type_0::SimdPredAlu                0      0.00%     80.61% # Type of FU issued
system.cpu.iq.FU_type_0::MemRead               669908     13.22%     93.83% # Type of FU issued
system.cpu.iq.FU_type_0::MemWrite              264372      5.22%     99.05% # Type of FU issued
system.cpu.iq.FU_type_0::FloatMemRead           32126      0.63%     99.69% # Type of FU issued
system.cpu.iq.FU_type_0::FloatMemWrite          15894      0.31%    100.00% # Type of FU issued
system.cpu.iq.FU_type_0::IprAccess                  0      0.00%    100.00% # Type of FU issued
system.cpu.iq.FU_type_0::InstPrefetch               0      0.00%    100.00% # Type of FU issued
system.cpu.iq.FU_type_0::total                5066114                       # Type of FU issued
system.cpu.iq.fp_alu_accesses                  144527                       # Number of floating point alu accesses
system.cpu.iq.fp_inst_queue_reads              290503                       # Number of floating instruction queue reads
system.cpu.iq.fp_inst_queue_wakeup_accesses       140809                       # Number of floating instruction queue wakeup accesses
system.cpu.iq.fp_inst_queue_writes             190065                       # Number of floating instruction queue writes
system.cpu.iq.fu_busy_cnt                           0                       # FU busy when requested
system.cpu.iq.fu_busy_rate                          0                       # FU busy rate (busy events/executed inst)
system.cpu.iq.fu_full::No_OpClass                   0                       # attempts to use FU when none available
system.cpu.iq.fu_full::IntAlu                       0                       # attempts to use FU when none available
system.cpu.iq.fu_full::IntMult                      0                       # attempts to use FU when none available
system.cpu.iq.fu_full::IntDiv                       0                       # attempts to use FU when none available
system.cpu.iq.fu_full::FloatAdd                     0                       # attempts to use FU when none available
system.cpu.iq.fu_full::FloatCmp                     0                       # attempts to use FU when none available
system.cpu.iq.fu_full::FloatCvt                     0                       # attempts to use FU when none available
system.cpu.iq.fu_full::FloatMult                    0                       # attempts to use FU when none available
system.cpu.iq.fu_full::FloatMultAcc                 0                       # attempts to use FU when none available
system.cpu.iq.fu_full::FloatDiv                     0                       # attempts to use FU when none available
system.cpu.iq.fu_full::FloatMisc                    0                       # attempts to use FU when none available
system.cpu.iq.fu_full::FloatSqrt                    0                       # attempts to use FU when none available
system.cpu.iq.fu_full::SimdAdd                      0                       # attempts to use FU when none available
system.cpu.iq.fu_full::SimdAddAcc                   0                       # attempts to use FU when none available
system.cpu.iq.fu_full::SimdAlu                      0                       # attempts to use FU when none available
system.cpu.iq.fu_full::SimdCmp                      0                       # attempts to use FU when none available
system.cpu.iq.fu_full::SimdCvt                      0                       # attempts to use FU when none available
system.cpu.iq.fu_full::SimdMisc                     0                       # attempts to use FU when none available
system.cpu.iq.fu_full::SimdMult                     0                       # attempts to use FU when none available
system.cpu.iq.fu_full::SimdMultAcc                  0                       # attempts to use FU when none available
system.cpu.iq.fu_full::SimdShift                    0                       # attempts to use FU when none available
system.cpu.iq.fu_full::SimdShiftAcc                 0                       # attempts to use FU when none available
system.cpu.iq.fu_full::SimdDiv                      0                       # attempts to use FU when none available
system.cpu.iq.fu_full::SimdSqrt                     0                       # attempts to use FU when none available
system.cpu.iq.fu_full::SimdFloatAdd                 0                       # attempts to use FU when none available
system.cpu.iq.fu_full::SimdFloatAlu                 0                       # attempts to use FU when none available
system.cpu.iq.fu_full::SimdFloatCmp                 0                       # attempts to use FU when none available
system.cpu.iq.fu_full::SimdFloatCvt                 0                       # attempts to use FU when none available
system.cpu.iq.fu_full::SimdFloatDiv                 0                       # attempts to use FU when none available
system.cpu.iq.fu_full::SimdFloatMisc                0                       # attempts to use FU when none available
system.cpu.iq.fu_full::SimdFloatMult                0                       # attempts to use FU when none available
system.cpu.iq.fu_full::SimdFloatMultAcc             0                       # attempts to use FU when none available
system.cpu.iq.fu_full::SimdFloatSqrt                0                       # attempts to use FU when none available
system.cpu.iq.fu_full::SimdReduceAdd                0                       # attempts to use FU when none available
system.cpu.iq.fu_full::SimdReduceAlu                0                       # attempts to use FU when none available
system.cpu.iq.fu_full::SimdReduceCmp                0                       # attempts to use FU when none available
system.cpu.iq.fu_full::SimdFloatReduceAdd            0                       # attempts to use FU when none available
system.cpu.iq.fu_full::SimdFloatReduceCmp            0                       # attempts to use FU when none available
system.cpu.iq.fu_full::SimdAes                      0                       # attempts to use FU when none available
system.cpu.iq.fu_full::SimdAesMix                   0                       # attempts to use FU when none available
system.cpu.iq.fu_full::SimdSha1Hash                 0                       # attempts to use FU when none available
system.cpu.iq.fu_full::SimdSha1Hash2                0                       # attempts to use FU when none available
system.cpu.iq.fu_full::SimdSha256Hash               0                       # attempts to use FU when none available
system.cpu.iq.fu_full::SimdSha256Hash2              0                       # attempts to use FU when none available
system.cpu.iq.fu_full::SimdShaSigma2                0                       # attempts to use FU when none available
system.cpu.iq.fu_full::SimdShaSigma3                0                       # attempts to use FU when none available
system.cpu.iq.fu_full::SimdPredAlu                  0                       # attempts to use FU when none available
system.cpu.iq.fu_full::MemRead                      0                       # attempts to use FU when none available
system.cpu.iq.fu_full::MemWrite                     0                       # attempts to use FU when none available
system.cpu.iq.fu_full::FloatMemRead                 0                       # attempts to use FU when none available
system.cpu.iq.fu_full::FloatMemWrite                0                       # attempts to use FU when none available
system.cpu.iq.fu_full::IprAccess                    0                       # attempts to use FU when none available
system.cpu.iq.fu_full::InstPrefetch                 0                       # attempts to use FU when none available
system.cpu.iq.int_alu_accesses                4890499                       # Number of integer alu accesses
system.cpu.iq.int_inst_queue_reads           12750065                       # Number of integer instruction queue reads
system.cpu.iq.int_inst_queue_wakeup_accesses      4868496                       # Number of integer instruction queue wakeup accesses
system.cpu.iq.int_inst_queue_writes           6095988                       # Number of integer instruction queue writes
system.cpu.iq.iqInstsAdded                    5387344                       # Number of instructions added to the IQ (excludes non-spec)
system.cpu.iq.iqInstsIssued                   5066114                       # Number of instructions issued
system.cpu.iq.iqNonSpecInstsAdded                1151                       # Number of non-speculative instructions added to the IQ
system.cpu.iq.iqSquashedInstsExamined          897471                       # Number of squashed instructions iterated over during squash; mainly for profiling
system.cpu.iq.iqSquashedInstsIssued             18492                       # Number of squashed instructions issued
system.cpu.iq.iqSquashedNonSpecRemoved            391                       # Number of squashed non-spec instructions that were removed
system.cpu.iq.iqSquashedOperandsExamined      1329841                       # Number of squashed operands that are examined and possibly removed from graph
system.cpu.iq.issued_per_cycle::samples       2889852                       # Number of insts issued each cycle
system.cpu.iq.issued_per_cycle::mean         1.753070                       # Number of insts issued each cycle
system.cpu.iq.issued_per_cycle::stdev        1.668855                       # Number of insts issued each cycle
system.cpu.iq.issued_per_cycle::underflows            0      0.00%      0.00% # Number of insts issued each cycle
system.cpu.iq.issued_per_cycle::0             1182699     40.93%     40.93% # Number of insts issued each cycle
system.cpu.iq.issued_per_cycle::1              203448      7.04%     47.97% # Number of insts issued each cycle
system.cpu.iq.issued_per_cycle::2              366032     12.67%     60.63% # Number of insts issued each cycle
system.cpu.iq.issued_per_cycle::3              420090     14.54%     75.17% # Number of insts issued each cycle
system.cpu.iq.issued_per_cycle::4              717583     24.83%    100.00% # Number of insts issued each cycle
system.cpu.iq.issued_per_cycle::overflows            0      0.00%    100.00% # Number of insts issued each cycle
system.cpu.iq.issued_per_cycle::min_value            0                       # Number of insts issued each cycle
system.cpu.iq.issued_per_cycle::max_value            4                       # Number of insts issued each cycle
system.cpu.iq.issued_per_cycle::total         2889852                       # Number of insts issued each cycle
system.cpu.iq.rate                           1.658709                       # Inst issue rate
system.cpu.iq.vec_alu_accesses                      0                       # Number of vector alu accesses
system.cpu.iq.vec_inst_queue_reads                  0                       # Number of vector instruction queue reads
system.cpu.iq.vec_inst_queue_wakeup_accesses            0                       # Number of vector instruction queue wakeup accesses
system.cpu.iq.vec_inst_queue_writes                 0                       # Number of vector instruction queue writes
system.cpu.itb.rdAccesses                           0                       # TLB accesses on read requests
system.cpu.itb.rdMisses                             0                       # TLB misses on read requests
system.cpu.itb.wrAccesses                      299294                       # TLB accesses on write requests
system.cpu.itb.wrMisses                           386                       # TLB misses on write requests
system.cpu.memDep0.conflictingLoads             15012                       # Number of conflicting loads.
system.cpu.memDep0.conflictingStores             8018                       # Number of conflicting stores.
system.cpu.memDep0.insertedLoads               722190                       # Number of loads inserted to the mem dependence unit.
system.cpu.memDep0.insertedStores              287981                       # Number of stores inserted to the mem dependence unit.
system.cpu.misc_regfile_reads                 1925673                       # number of misc regfile reads
system.cpu.misc_regfile_writes                    702                       # number of misc regfile writes
system.cpu.numCycles                          3054251                       # number of cpu cycles simulated
system.cpu.numWorkItemsCompleted                    0                       # number of work items this cpu completed
system.cpu.numWorkItemsStarted                      0                       # number of work items this cpu started
system.cpu.process.numSyscalls                     57                       # Number of system calls
system.cpu.rename.BlockCycles                  838829                       # Number of cycles rename is blocking
system.cpu.rename.CommittedMaps               5905576                       # Number of HB maps that are committed
system.cpu.rename.FullRegisterEvents              168                       # Number of times there has been no free registers
system.cpu.rename.IQFullEvents                  49161                       # Number of times rename has blocked due to IQ full
system.cpu.rename.IdleCycles                   410337                       # Number of cycles rename is idle
system.cpu.rename.LQFullEvents                  16462                       # Number of times rename has blocked due to LQ full
system.cpu.rename.ROBFullEvents                  4247                       # Number of times rename has blocked due to ROB full
system.cpu.rename.RenameLookups              14386768                       # Number of register rename lookups that rename has made
system.cpu.rename.RenamedInsts                5531125                       # Number of instructions processed by rename
system.cpu.rename.RenamedOperands             7315402                       # Number of destination operands rename has renamed
system.cpu.rename.RunCycles                   1417603                       # Number of cycles rename is running
system.cpu.rename.SQFullEvents                  74968                       # Number of times rename has blocked due to SQ full
system.cpu.rename.SquashCycles                  24562                       # Number of cycles rename is squashing
system.cpu.rename.UnblockCycles                178164                       # Number of cycles rename is unblocking
system.cpu.rename.UndoneMaps                  1409800                       # Number of HB maps that are undone due to squashing
system.cpu.rename.fp_rename_lookups            248765                       # Number of floating rename lookups
system.cpu.rename.int_rename_lookups          8694818                       # Number of integer rename lookups
system.cpu.rename.serializeStallCycles          20357                       # count of cycles rename stalled for serializing inst
system.cpu.rename.serializingInsts                897                       # count of serializing insts renamed
system.cpu.rename.skidInsts                    212682                       # count of insts added to the skid buffer
system.cpu.rename.tempSerializingInsts            952                       # count of temporary serializing insts renamed
system.cpu.rob.rob_reads                      7278949                       # The number of ROB reads
system.cpu.rob.rob_writes                    11022716                       # The number of ROB writes
system.cpu.timesIdled                            1647                       # Number of times that the entire CPU went into an idle state and unscheduled itself
system.l2bus.snoop_filter.hit_multi_requests           12                       # Number of requests hitting in the snoop filter with multiple (>1) holders of the requested data.
system.l2bus.snoop_filter.hit_multi_snoops            1                       # Number of snoops hitting in the snoop filter with multiple (>1) holders of the requested data.
system.l2bus.snoop_filter.hit_single_requests        18598                       # Number of requests hitting in the snoop filter with a single holder of the requested data.
system.l2bus.snoop_filter.hit_single_snoops          442                       # Number of snoops hitting in the snoop filter with a single holder of the requested data.
system.l2bus.snoop_filter.tot_requests          38474                       # Total number of requests made to the snoop filter.
system.l2bus.snoop_filter.tot_snoops              443                       # Total number of snoops made to the snoop filter.
system.l2cache.prefetcher.num_hwpf_issued          727                       # number of hwpf issued
system.l2cache.prefetcher.pfBufferHit               0                       # number of redundant prefetches already in prefetch queue
system.l2cache.prefetcher.pfIdentified            727                       # number of prefetch candidates identified
system.l2cache.prefetcher.pfInCache                 0                       # number of redundant prefetches already in cache/mshr dropped
system.l2cache.prefetcher.pfRemovedFull             0                       # number of prefetches dropped due to prefetch queue size
system.l2cache.prefetcher.pfSpanPage              133                       # number of prefetches that crossed the page
system.membus.snoop_filter.hit_multi_requests            0                       # Number of requests hitting in the snoop filter with multiple (>1) holders of the requested data.
system.membus.snoop_filter.hit_multi_snoops            0                       # Number of snoops hitting in the snoop filter with multiple (>1) holders of the requested data.
system.membus.snoop_filter.hit_single_requests         9499                       # Number of requests hitting in the snoop filter with a single holder of the requested data.
system.membus.snoop_filter.hit_single_snoops            0                       # Number of snoops hitting in the snoop filter with a single holder of the requested data.
system.membus.snoop_filter.tot_requests         23115                       # Total number of requests made to the snoop filter.
system.membus.snoop_filter.tot_snoops               0                       # Total number of snoops made to the snoop filter.
system.membus.pwrStateResidencyTicks::UNDEFINED   1221700000                       # Cumulative time (in ticks) in various power states
system.membus.trans_dist::ReadResp              12245                       # Transaction distribution
system.membus.trans_dist::WritebackDirty         1349                       # Transaction distribution
system.membus.trans_dist::CleanEvict             8150                       # Transaction distribution
system.membus.trans_dist::ReadExReq              1371                       # Transaction distribution
system.membus.trans_dist::ReadExResp             1371                       # Transaction distribution
system.membus.trans_dist::ReadSharedReq         12245                       # Transaction distribution
system.membus.pkt_count_system.l2cache.mem_side::system.mem_ctrl.port        36731                       # Packet count per connected master and slave (bytes)
system.membus.pkt_count_system.l2cache.mem_side::total        36731                       # Packet count per connected master and slave (bytes)
system.membus.pkt_count::total                  36731                       # Packet count per connected master and slave (bytes)
system.membus.pkt_size_system.l2cache.mem_side::system.mem_ctrl.port       957760                       # Cumulative packet size per connected master and slave (bytes)
system.membus.pkt_size_system.l2cache.mem_side::total       957760                       # Cumulative packet size per connected master and slave (bytes)
system.membus.pkt_size::total                  957760                       # Cumulative packet size per connected master and slave (bytes)
system.membus.snoops                                0                       # Total snoops (count)
system.membus.snoopTraffic                          0                       # Total snoop traffic (bytes)
system.membus.snoop_fanout::samples             13616                       # Request fanout histogram
system.membus.snoop_fanout::mean                    0                       # Request fanout histogram
system.membus.snoop_fanout::stdev                   0                       # Request fanout histogram
system.membus.snoop_fanout::underflows              0      0.00%      0.00% # Request fanout histogram
system.membus.snoop_fanout::0                   13616    100.00%    100.00% # Request fanout histogram
system.membus.snoop_fanout::1                       0      0.00%    100.00% # Request fanout histogram
system.membus.snoop_fanout::overflows               0      0.00%    100.00% # Request fanout histogram
system.membus.snoop_fanout::min_value               0                       # Request fanout histogram
system.membus.snoop_fanout::max_value               0                       # Request fanout histogram
system.membus.snoop_fanout::total               13616                       # Request fanout histogram
system.membus.reqLayer2.occupancy            11433381                       # Layer occupancy (ticks)
system.membus.reqLayer2.utilization               0.9                       # Layer utilization (%)
system.membus.respLayer0.occupancy           29551619                       # Layer occupancy (ticks)
system.membus.respLayer0.utilization              2.4                       # Layer utilization (%)
system.l2bus.pwrStateResidencyTicks::UNDEFINED   1221700000                       # Cumulative time (in ticks) in various power states
system.l2bus.trans_dist::ReadResp               17745                       # Transaction distribution
system.l2bus.trans_dist::WritebackDirty          4153                       # Transaction distribution
system.l2bus.trans_dist::CleanEvict             24030                       # Transaction distribution
system.l2bus.trans_dist::HardPFReq               1011                       # Transaction distribution
system.l2bus.trans_dist::ReadExReq               2132                       # Transaction distribution
system.l2bus.trans_dist::ReadExResp              2132                       # Transaction distribution
system.l2bus.trans_dist::ReadSharedReq          17745                       # Transaction distribution
system.l2bus.pkt_count_system.cpu.icache.mem_side::system.l2cache.cpu_side         8507                       # Packet count per connected master and slave (bytes)
system.l2bus.pkt_count_system.cpu.dcache.mem_side::system.l2cache.cpu_side        49841                       # Packet count per connected master and slave (bytes)
system.l2bus.pkt_count::total                   58348                       # Packet count per connected master and slave (bytes)
system.l2bus.pkt_size_system.cpu.icache.mem_side::system.l2cache.cpu_side       186816                       # Cumulative packet size per connected master and slave (bytes)
system.l2bus.pkt_size_system.cpu.dcache.mem_side::system.l2cache.cpu_side      1264576                       # Cumulative packet size per connected master and slave (bytes)
system.l2bus.pkt_size::total                  1451392                       # Cumulative packet size per connected master and slave (bytes)
system.l2bus.snoops                             10600                       # Total snoops (count)
system.l2bus.snoopTraffic                       86528                       # Total snoop traffic (bytes)
system.l2bus.snoop_fanout::samples              30474                       # Request fanout histogram
system.l2bus.snoop_fanout::mean              0.014996                       # Request fanout histogram
system.l2bus.snoop_fanout::stdev             0.121810                       # Request fanout histogram
system.l2bus.snoop_fanout::underflows               0      0.00%      0.00% # Request fanout histogram
system.l2bus.snoop_fanout::0                    30018     98.50%     98.50% # Request fanout histogram
system.l2bus.snoop_fanout::1                      455      1.49%    100.00% # Request fanout histogram
system.l2bus.snoop_fanout::2                        1      0.00%    100.00% # Request fanout histogram
system.l2bus.snoop_fanout::overflows                0      0.00%    100.00% # Request fanout histogram
system.l2bus.snoop_fanout::min_value                0                       # Request fanout histogram
system.l2bus.snoop_fanout::max_value                2                       # Request fanout histogram
system.l2bus.snoop_fanout::total                30474                       # Request fanout histogram
system.l2bus.respLayer1.occupancy            20347197                       # Layer occupancy (ticks)
system.l2bus.respLayer1.utilization               1.7                       # Layer utilization (%)
system.l2bus.reqLayer0.occupancy             19042717                       # Layer occupancy (ticks)
system.l2bus.reqLayer0.utilization                1.6                       # Layer utilization (%)
system.l2bus.respLayer0.occupancy             3507597                       # Layer occupancy (ticks)
system.l2bus.respLayer0.utilization               0.3                       # Layer utilization (%)
system.clk_domain.clock                           400                       # Clock period in ticks
system.clk_domain.voltage_domain.voltage            1                       # Voltage in Volts
system.cpu.pwrStateResidencyTicks::ON      1221700000                       # Cumulative time (in ticks) in various power states
system.cpu.icache.pwrStateResidencyTicks::UNDEFINED   1221700000                       # Cumulative time (in ticks) in various power states
system.cpu.icache.demand_hits::.cpu.inst       295522                       # number of demand (read+write) hits
system.cpu.icache.demand_hits::total           295522                       # number of demand (read+write) hits
system.cpu.icache.overall_hits::.cpu.inst       295522                       # number of overall hits
system.cpu.icache.overall_hits::total          295522                       # number of overall hits
system.cpu.icache.demand_misses::.cpu.inst         3635                       # number of demand (read+write) misses
system.cpu.icache.demand_misses::total           3635                       # number of demand (read+write) misses
system.cpu.icache.overall_misses::.cpu.inst         3635                       # number of overall misses
system.cpu.icache.overall_misses::total          3635                       # number of overall misses
system.cpu.icache.demand_miss_latency::.cpu.inst    179956800                       # number of demand (read+write) miss cycles
system.cpu.icache.demand_miss_latency::total    179956800                       # number of demand (read+write) miss cycles
system.cpu.icache.overall_miss_latency::.cpu.inst    179956800                       # number of overall miss cycles
system.cpu.icache.overall_miss_latency::total    179956800                       # number of overall miss cycles
system.cpu.icache.demand_accesses::.cpu.inst       299157                       # number of demand (read+write) accesses
system.cpu.icache.demand_accesses::total       299157                       # number of demand (read+write) accesses
system.cpu.icache.overall_accesses::.cpu.inst       299157                       # number of overall (read+write) accesses
system.cpu.icache.overall_accesses::total       299157                       # number of overall (read+write) accesses
system.cpu.icache.demand_miss_rate::.cpu.inst     0.012151                       # miss rate for demand accesses
system.cpu.icache.demand_miss_rate::total     0.012151                       # miss rate for demand accesses
system.cpu.icache.overall_miss_rate::.cpu.inst     0.012151                       # miss rate for overall accesses
system.cpu.icache.overall_miss_rate::total     0.012151                       # miss rate for overall accesses
system.cpu.icache.demand_avg_miss_latency::.cpu.inst 49506.685007                       # average overall miss latency
system.cpu.icache.demand_avg_miss_latency::total 49506.685007                       # average overall miss latency
system.cpu.icache.overall_avg_miss_latency::.cpu.inst 49506.685007                       # average overall miss latency
system.cpu.icache.overall_avg_miss_latency::total 49506.685007                       # average overall miss latency
system.cpu.icache.blocked_cycles::no_mshrs           39                       # number of cycles access was blocked
system.cpu.icache.blocked_cycles::no_targets            0                       # number of cycles access was blocked
system.cpu.icache.blocked::no_mshrs                 2                       # number of cycles access was blocked
system.cpu.icache.blocked::no_targets               0                       # number of cycles access was blocked
system.cpu.icache.avg_blocked_cycles::no_mshrs    19.500000                       # average number of cycles each access was blocked
system.cpu.icache.avg_blocked_cycles::no_targets          nan                       # average number of cycles each access was blocked
system.cpu.icache.demand_mshr_hits::.cpu.inst          713                       # number of demand (read+write) MSHR hits
system.cpu.icache.demand_mshr_hits::total          713                       # number of demand (read+write) MSHR hits
system.cpu.icache.overall_mshr_hits::.cpu.inst          713                       # number of overall MSHR hits
system.cpu.icache.overall_mshr_hits::total          713                       # number of overall MSHR hits
system.cpu.icache.demand_mshr_misses::.cpu.inst         2922                       # number of demand (read+write) MSHR misses
system.cpu.icache.demand_mshr_misses::total         2922                       # number of demand (read+write) MSHR misses
system.cpu.icache.overall_mshr_misses::.cpu.inst         2922                       # number of overall MSHR misses
system.cpu.icache.overall_mshr_misses::total         2922                       # number of overall MSHR misses
system.cpu.icache.demand_mshr_miss_latency::.cpu.inst    145396000                       # number of demand (read+write) MSHR miss cycles
system.cpu.icache.demand_mshr_miss_latency::total    145396000                       # number of demand (read+write) MSHR miss cycles
system.cpu.icache.overall_mshr_miss_latency::.cpu.inst    145396000                       # number of overall MSHR miss cycles
system.cpu.icache.overall_mshr_miss_latency::total    145396000                       # number of overall MSHR miss cycles
system.cpu.icache.demand_mshr_miss_rate::.cpu.inst     0.009767                       # mshr miss rate for demand accesses
system.cpu.icache.demand_mshr_miss_rate::total     0.009767                       # mshr miss rate for demand accesses
system.cpu.icache.overall_mshr_miss_rate::.cpu.inst     0.009767                       # mshr miss rate for overall accesses
system.cpu.icache.overall_mshr_miss_rate::total     0.009767                       # mshr miss rate for overall accesses
system.cpu.icache.demand_avg_mshr_miss_latency::.cpu.inst 49759.069131                       # average overall mshr miss latency
system.cpu.icache.demand_avg_mshr_miss_latency::total 49759.069131                       # average overall mshr miss latency
system.cpu.icache.overall_avg_mshr_miss_latency::.cpu.inst 49759.069131                       # average overall mshr miss latency
system.cpu.icache.overall_avg_mshr_miss_latency::total 49759.069131                       # average overall mshr miss latency
system.cpu.icache.replacements                   2666                       # number of replacements
system.cpu.icache.ReadReq_hits::.cpu.inst       295522                       # number of ReadReq hits
system.cpu.icache.ReadReq_hits::total          295522                       # number of ReadReq hits
system.cpu.icache.ReadReq_misses::.cpu.inst         3635                       # number of ReadReq misses
system.cpu.icache.ReadReq_misses::total          3635                       # number of ReadReq misses
system.cpu.icache.ReadReq_miss_latency::.cpu.inst    179956800                       # number of ReadReq miss cycles
system.cpu.icache.ReadReq_miss_latency::total    179956800                       # number of ReadReq miss cycles
system.cpu.icache.ReadReq_accesses::.cpu.inst       299157                       # number of ReadReq accesses(hits+misses)
system.cpu.icache.ReadReq_accesses::total       299157                       # number of ReadReq accesses(hits+misses)
system.cpu.icache.ReadReq_miss_rate::.cpu.inst     0.012151                       # miss rate for ReadReq accesses
system.cpu.icache.ReadReq_miss_rate::total     0.012151                       # miss rate for ReadReq accesses
system.cpu.icache.ReadReq_avg_miss_latency::.cpu.inst 49506.685007                       # average ReadReq miss latency
system.cpu.icache.ReadReq_avg_miss_latency::total 49506.685007                       # average ReadReq miss latency
system.cpu.icache.ReadReq_mshr_hits::.cpu.inst          713                       # number of ReadReq MSHR hits
system.cpu.icache.ReadReq_mshr_hits::total          713                       # number of ReadReq MSHR hits
system.cpu.icache.ReadReq_mshr_misses::.cpu.inst         2922                       # number of ReadReq MSHR misses
system.cpu.icache.ReadReq_mshr_misses::total         2922                       # number of ReadReq MSHR misses
system.cpu.icache.ReadReq_mshr_miss_latency::.cpu.inst    145396000                       # number of ReadReq MSHR miss cycles
system.cpu.icache.ReadReq_mshr_miss_latency::total    145396000                       # number of ReadReq MSHR miss cycles
system.cpu.icache.ReadReq_mshr_miss_rate::.cpu.inst     0.009767                       # mshr miss rate for ReadReq accesses
system.cpu.icache.ReadReq_mshr_miss_rate::total     0.009767                       # mshr miss rate for ReadReq accesses
system.cpu.icache.ReadReq_avg_mshr_miss_latency::.cpu.inst 49759.069131                       # average ReadReq mshr miss latency
system.cpu.icache.ReadReq_avg_mshr_miss_latency::total 49759.069131                       # average ReadReq mshr miss latency
system.cpu.icache.prefetcher.pwrStateResidencyTicks::UNDEFINED   1221700000                       # Cumulative time (in ticks) in various power states
system.cpu.icache.tags.pwrStateResidencyTicks::UNDEFINED   1221700000                       # Cumulative time (in ticks) in various power states
system.cpu.icache.tags.tagsinuse           253.735756                       # Cycle average of tags in use
system.cpu.icache.tags.total_refs              269014                       # Total number of references to valid blocks.
system.cpu.icache.tags.sampled_refs              2666                       # Sample count of references to valid blocks.
system.cpu.icache.tags.avg_refs            100.905476                       # Average number of references to valid blocks.
system.cpu.icache.tags.warmup_cycle             66400                       # Cycle when the warmup percentage was hit.
system.cpu.icache.tags.occ_blocks::.cpu.inst   253.735756                       # Average occupied blocks per requestor
system.cpu.icache.tags.occ_percent::.cpu.inst     0.991155                       # Average percentage of cache occupancy
system.cpu.icache.tags.occ_percent::total     0.991155                       # Average percentage of cache occupancy
system.cpu.icache.tags.occ_task_id_blocks::1024          256                       # Occupied blocks per task id
system.cpu.icache.tags.age_task_id_blocks_1024::0          110                       # Occupied blocks per task id
system.cpu.icache.tags.age_task_id_blocks_1024::1            2                       # Occupied blocks per task id
system.cpu.icache.tags.age_task_id_blocks_1024::2          142                       # Occupied blocks per task id
system.cpu.icache.tags.age_task_id_blocks_1024::3            2                       # Occupied blocks per task id
system.cpu.icache.tags.occ_task_id_percent::1024            1                       # Percentage of cache occupancy per task id
system.cpu.icache.tags.tag_accesses            601236                       # Number of tag accesses
system.cpu.icache.tags.data_accesses           601236                       # Number of data accesses
system.cpu.dtb.walker.pwrStateResidencyTicks::UNDEFINED   1221700000                       # Cumulative time (in ticks) in various power states
system.cpu.interrupts.clk_domain.clock           6400                       # Clock period in ticks
system.cpu.itb.walker.pwrStateResidencyTicks::UNDEFINED   1221700000                       # Cumulative time (in ticks) in various power states
system.cpu.dcache.pwrStateResidencyTicks::UNDEFINED   1221700000                       # Cumulative time (in ticks) in various power states
system.cpu.dcache.demand_hits::.cpu.data       858943                       # number of demand (read+write) hits
system.cpu.dcache.demand_hits::total           858943                       # number of demand (read+write) hits
system.cpu.dcache.overall_hits::.cpu.data       858943                       # number of overall hits
system.cpu.dcache.overall_hits::total          858943                       # number of overall hits
system.cpu.dcache.demand_misses::.cpu.data        34783                       # number of demand (read+write) misses
system.cpu.dcache.demand_misses::total          34783                       # number of demand (read+write) misses
system.cpu.dcache.overall_misses::.cpu.data        34783                       # number of overall misses
system.cpu.dcache.overall_misses::total         34783                       # number of overall misses
system.cpu.dcache.demand_miss_latency::.cpu.data   1681067999                       # number of demand (read+write) miss cycles
system.cpu.dcache.demand_miss_latency::total   1681067999                       # number of demand (read+write) miss cycles
system.cpu.dcache.overall_miss_latency::.cpu.data   1681067999                       # number of overall miss cycles
system.cpu.dcache.overall_miss_latency::total   1681067999                       # number of overall miss cycles
system.cpu.dcache.demand_accesses::.cpu.data       893726                       # number of demand (read+write) accesses
system.cpu.dcache.demand_accesses::total       893726                       # number of demand (read+write) accesses
system.cpu.dcache.overall_accesses::.cpu.data       893726                       # number of overall (read+write) accesses
system.cpu.dcache.overall_accesses::total       893726                       # number of overall (read+write) accesses
system.cpu.dcache.demand_miss_rate::.cpu.data     0.038919                       # miss rate for demand accesses
system.cpu.dcache.demand_miss_rate::total     0.038919                       # miss rate for demand accesses
system.cpu.dcache.overall_miss_rate::.cpu.data     0.038919                       # miss rate for overall accesses
system.cpu.dcache.overall_miss_rate::total     0.038919                       # miss rate for overall accesses
system.cpu.dcache.demand_avg_miss_latency::.cpu.data 48330.161257                       # average overall miss latency
system.cpu.dcache.demand_avg_miss_latency::total 48330.161257                       # average overall miss latency
system.cpu.dcache.overall_avg_miss_latency::.cpu.data 48330.161257                       # average overall miss latency
system.cpu.dcache.overall_avg_miss_latency::total 48330.161257                       # average overall miss latency
system.cpu.dcache.blocked_cycles::no_mshrs        29566                       # number of cycles access was blocked
system.cpu.dcache.blocked_cycles::no_targets          138                       # number of cycles access was blocked
system.cpu.dcache.blocked::no_mshrs               789                       # number of cycles access was blocked
system.cpu.dcache.blocked::no_targets               1                       # number of cycles access was blocked
system.cpu.dcache.avg_blocked_cycles::no_mshrs    37.472750                       # average number of cycles each access was blocked
system.cpu.dcache.avg_blocked_cycles::no_targets          138                       # average number of cycles each access was blocked
system.cpu.dcache.unused_prefetches              1740                       # number of HardPF blocks evicted w/o reference
system.cpu.dcache.writebacks::.writebacks         2804                       # number of writebacks
system.cpu.dcache.writebacks::total              2804                       # number of writebacks
system.cpu.dcache.demand_mshr_hits::.cpu.data        22141                       # number of demand (read+write) MSHR hits
system.cpu.dcache.demand_mshr_hits::total        22141                       # number of demand (read+write) MSHR hits
system.cpu.dcache.overall_mshr_hits::.cpu.data        22141                       # number of overall MSHR hits
system.cpu.dcache.overall_mshr_hits::total        22141                       # number of overall MSHR hits
system.cpu.dcache.demand_mshr_misses::.cpu.data        12642                       # number of demand (read+write) MSHR misses
system.cpu.dcache.demand_mshr_misses::total        12642                       # number of demand (read+write) MSHR misses
system.cpu.dcache.overall_mshr_misses::.cpu.data        12642                       # number of overall MSHR misses
system.cpu.dcache.overall_mshr_misses::.cpu.dcache.prefetcher         4313                       # number of overall MSHR misses
system.cpu.dcache.overall_mshr_misses::total        16955                       # number of overall MSHR misses
system.cpu.dcache.demand_mshr_miss_latency::.cpu.data    577667599                       # number of demand (read+write) MSHR miss cycles
system.cpu.dcache.demand_mshr_miss_latency::total    577667599                       # number of demand (read+write) MSHR miss cycles
system.cpu.dcache.overall_mshr_miss_latency::.cpu.data    577667599                       # number of overall MSHR miss cycles
system.cpu.dcache.overall_mshr_miss_latency::.cpu.dcache.prefetcher    248836585                       # number of overall MSHR miss cycles
system.cpu.dcache.overall_mshr_miss_latency::total    826504184                       # number of overall MSHR miss cycles
system.cpu.dcache.demand_mshr_miss_rate::.cpu.data     0.014145                       # mshr miss rate for demand accesses
system.cpu.dcache.demand_mshr_miss_rate::total     0.014145                       # mshr miss rate for demand accesses
system.cpu.dcache.overall_mshr_miss_rate::.cpu.data     0.014145                       # mshr miss rate for overall accesses
system.cpu.dcache.overall_mshr_miss_rate::.cpu.dcache.prefetcher          inf                       # mshr miss rate for overall accesses
system.cpu.dcache.overall_mshr_miss_rate::total     0.018971                       # mshr miss rate for overall accesses
system.cpu.dcache.demand_avg_mshr_miss_latency::.cpu.data 45694.320440                       # average overall mshr miss latency
system.cpu.dcache.demand_avg_mshr_miss_latency::total 45694.320440                       # average overall mshr miss latency
system.cpu.dcache.overall_avg_mshr_miss_latency::.cpu.data 45694.320440                       # average overall mshr miss latency
system.cpu.dcache.overall_avg_mshr_miss_latency::.cpu.dcache.prefetcher 57694.547879                       # average overall mshr miss latency
system.cpu.dcache.overall_avg_mshr_miss_latency::total 48746.929165                       # average overall mshr miss latency
system.cpu.dcache.replacements                  15931                       # number of replacements
system.cpu.dcache.ReadReq_hits::.cpu.data       603138                       # number of ReadReq hits
system.cpu.dcache.ReadReq_hits::total          603138                       # number of ReadReq hits
system.cpu.dcache.ReadReq_misses::.cpu.data        32613                       # number of ReadReq misses
system.cpu.dcache.ReadReq_misses::total         32613                       # number of ReadReq misses
system.cpu.dcache.ReadReq_miss_latency::.cpu.data   1573965600                       # number of ReadReq miss cycles
system.cpu.dcache.ReadReq_miss_latency::total   1573965600                       # number of ReadReq miss cycles
system.cpu.dcache.ReadReq_accesses::.cpu.data       635751                       # number of ReadReq accesses(hits+misses)
system.cpu.dcache.ReadReq_accesses::total       635751                       # number of ReadReq accesses(hits+misses)
system.cpu.dcache.ReadReq_miss_rate::.cpu.data     0.051298                       # miss rate for ReadReq accesses
system.cpu.dcache.ReadReq_miss_rate::total     0.051298                       # miss rate for ReadReq accesses
system.cpu.dcache.ReadReq_avg_miss_latency::.cpu.data 48261.907828                       # average ReadReq miss latency
system.cpu.dcache.ReadReq_avg_miss_latency::total 48261.907828                       # average ReadReq miss latency
system.cpu.dcache.ReadReq_mshr_hits::.cpu.data        22101                       # number of ReadReq MSHR hits
system.cpu.dcache.ReadReq_mshr_hits::total        22101                       # number of ReadReq MSHR hits
system.cpu.dcache.ReadReq_mshr_misses::.cpu.data        10512                       # number of ReadReq MSHR misses
system.cpu.dcache.ReadReq_mshr_misses::total        10512                       # number of ReadReq MSHR misses
system.cpu.dcache.ReadReq_mshr_miss_latency::.cpu.data    473803600                       # number of ReadReq MSHR miss cycles
system.cpu.dcache.ReadReq_mshr_miss_latency::total    473803600                       # number of ReadReq MSHR miss cycles
system.cpu.dcache.ReadReq_mshr_miss_rate::.cpu.data     0.016535                       # mshr miss rate for ReadReq accesses
system.cpu.dcache.ReadReq_mshr_miss_rate::total     0.016535                       # mshr miss rate for ReadReq accesses
system.cpu.dcache.ReadReq_avg_mshr_miss_latency::.cpu.data 45072.640791                       # average ReadReq mshr miss latency
system.cpu.dcache.ReadReq_avg_mshr_miss_latency::total 45072.640791                       # average ReadReq mshr miss latency
system.cpu.dcache.WriteReq_hits::.cpu.data       255805                       # number of WriteReq hits
system.cpu.dcache.WriteReq_hits::total         255805                       # number of WriteReq hits
system.cpu.dcache.WriteReq_misses::.cpu.data         2170                       # number of WriteReq misses
system.cpu.dcache.WriteReq_misses::total         2170                       # number of WriteReq misses
system.cpu.dcache.WriteReq_miss_latency::.cpu.data    107102399                       # number of WriteReq miss cycles
system.cpu.dcache.WriteReq_miss_latency::total    107102399                       # number of WriteReq miss cycles
system.cpu.dcache.WriteReq_accesses::.cpu.data       257975                       # number of WriteReq accesses(hits+misses)
system.cpu.dcache.WriteReq_accesses::total       257975                       # number of WriteReq accesses(hits+misses)
system.cpu.dcache.WriteReq_miss_rate::.cpu.data     0.008412                       # miss rate for WriteReq accesses
system.cpu.dcache.WriteReq_miss_rate::total     0.008412                       # miss rate for WriteReq accesses
system.cpu.dcache.WriteReq_avg_miss_latency::.cpu.data 49355.944240                       # average WriteReq miss latency
system.cpu.dcache.WriteReq_avg_miss_latency::total 49355.944240                       # average WriteReq miss latency
system.cpu.dcache.WriteReq_mshr_hits::.cpu.data           40                       # number of WriteReq MSHR hits
system.cpu.dcache.WriteReq_mshr_hits::total           40                       # number of WriteReq MSHR hits
system.cpu.dcache.WriteReq_mshr_misses::.cpu.data         2130                       # number of WriteReq MSHR misses
system.cpu.dcache.WriteReq_mshr_misses::total         2130                       # number of WriteReq MSHR misses
system.cpu.dcache.WriteReq_mshr_miss_latency::.cpu.data    103863999                       # number of WriteReq MSHR miss cycles
[...]
system.l2cache.demand_mshr_misses::.cpu.data          126                       # number of demand (read+write) MSHR misses
system.l2cache.demand_mshr_misses::.cpu.dcache.prefetcher           39                       # number of demand (read+write) MSHR misses
system.l2cache.demand_mshr_misses::total          400                       # number of demand (read+write) MSHR misses
system.l2cache.overall_mshr_misses::.cpu.inst          235                       # number of overall MSHR misses
system.l2cache.overall_mshr_misses::.cpu.data          126                       # number of overall MSHR misses
system.l2cache.overall_mshr_misses::.cpu.dcache.prefetcher           39                       # number of overall MSHR misses
system.l2cache.overall_mshr_misses::total          400                       # number of overall MSHR misses
system.l2cache.demand_mshr_miss_latency::.cpu.inst     14032000                       # number of demand (read+write) MSHR miss cycles
system.l2cache.demand_mshr_miss_latency::.cpu.data      7703600                       # number of demand (read+write) MSHR miss cycles
system.l2cache.demand_mshr_miss_latency::.cpu.dcache.prefetcher      2304361                       # number of demand (read+write) MSHR miss cycles
system.l2cache.demand_mshr_miss_latency::total     24039961                       # number of demand (read+write) MSHR miss cycles
system.l2cache.overall_mshr_miss_latency::.cpu.inst     14032000                       # number of overall MSHR miss cycles
system.l2cache.overall_mshr_miss_latency::.cpu.data      7703600                       # number of overall MSHR miss cycles
system.l2cache.overall_mshr_miss_latency::.cpu.dcache.prefetcher      2304361                       # number of overall MSHR miss cycles
system.l2cache.overall_mshr_miss_latency::total     24039961                       # number of overall MSHR miss cycles
system.l2cache.demand_mshr_miss_rate::.cpu.inst     0.516484                       # mshr miss rate for demand accesses
system.l2cache.demand_mshr_miss_rate::.cpu.data     0.520661                       # mshr miss rate for demand accesses
system.l2cache.demand_mshr_miss_rate::.cpu.dcache.prefetcher     0.764706                       # mshr miss rate for demand accesses
system.l2cache.demand_mshr_miss_rate::total     0.534759                       # mshr miss rate for demand accesses
system.l2cache.overall_mshr_miss_rate::.cpu.inst     0.516484                       # mshr miss rate for overall accesses
system.l2cache.overall_mshr_miss_rate::.cpu.data     0.520661                       # mshr miss rate for overall accesses
system.l2cache.overall_mshr_miss_rate::.cpu.dcache.prefetcher     0.764706                       # mshr miss rate for overall accesses
system.l2cache.overall_mshr_miss_rate::total     0.534759                       # mshr miss rate for overall accesses
system.l2cache.demand_avg_mshr_miss_latency::.cpu.inst 59710.638298                       # average overall mshr miss latency
system.l2cache.demand_avg_mshr_miss_latency::.cpu.data 61139.682540                       # average overall mshr miss latency
system.l2cache.demand_avg_mshr_miss_latency::.cpu.dcache.prefetcher 59086.179487                       # average overall mshr miss latency
system.l2cache.demand_avg_mshr_miss_latency::total 60099.902500                       # average overall mshr miss latency
system.l2cache.overall_avg_mshr_miss_latency::.cpu.inst 59710.638298                       # average overall mshr miss latency
system.l2cache.overall_avg_mshr_miss_latency::.cpu.data 61139.682540                       # average overall mshr miss latency
system.l2cache.overall_avg_mshr_miss_latency::.cpu.dcache.prefetcher 59086.179487                       # average overall mshr miss latency
system.l2cache.overall_avg_mshr_miss_latency::total 60099.902500                       # average overall mshr miss latency
system.l2cache.replacements                       410                       # number of replacements
system.l2cache.WritebackDirty_hits::.writebacks           87                       # number of WritebackDirty hits
system.l2cache.WritebackDirty_hits::total           87                       # number of WritebackDirty hits
system.l2cache.WritebackDirty_accesses::.writebacks           87                       # number of WritebackDirty accesses(hits+misses)
system.l2cache.WritebackDirty_accesses::total           87                       # number of WritebackDirty accesses(hits+misses)
system.l2cache.CleanEvict_mshr_misses::.writebacks            8                       # number of CleanEvict MSHR misses
system.l2cache.CleanEvict_mshr_misses::total            8                       # number of CleanEvict MSHR misses
system.l2cache.CleanEvict_mshr_miss_rate::.writebacks          inf                       # mshr miss rate for CleanEvict accesses
system.l2cache.CleanEvict_mshr_miss_rate::total          inf                       # mshr miss rate for CleanEvict accesses
system.l2cache.ReadExReq_hits::.cpu.data            3                       # number of ReadExReq hits
system.l2cache.ReadExReq_hits::total                3                       # number of ReadExReq hits
system.l2cache.ReadExReq_misses::.cpu.data           14                       # number of ReadExReq misses
system.l2cache.ReadExReq_misses::total             14                       # number of ReadExReq misses
system.l2cache.ReadExReq_miss_latency::.cpu.data      1044000                       # number of ReadExReq miss cycles
system.l2cache.ReadExReq_miss_latency::total      1044000                       # number of ReadExReq miss cycles
system.l2cache.ReadExReq_accesses::.cpu.data           17                       # number of ReadExReq accesses(hits+misses)
system.l2cache.ReadExReq_accesses::total           17                       # number of ReadExReq accesses(hits+misses)
system.l2cache.ReadExReq_miss_rate::.cpu.data     0.823529                       # miss rate for ReadExReq accesses
system.l2cache.ReadExReq_miss_rate::total     0.823529                       # miss rate for ReadExReq accesses
system.l2cache.ReadExReq_avg_miss_latency::.cpu.data 74571.428571                       # average ReadExReq miss latency
system.l2cache.ReadExReq_avg_miss_latency::total 74571.428571                       # average ReadExReq miss latency
system.l2cache.ReadExReq_mshr_misses::.cpu.data           14                       # number of ReadExReq MSHR misses
system.l2cache.ReadExReq_mshr_misses::total           14                       # number of ReadExReq MSHR misses
system.l2cache.ReadExReq_mshr_miss_latency::.cpu.data       932000                       # number of ReadExReq MSHR miss cycles
system.l2cache.ReadExReq_mshr_miss_latency::total       932000                       # number of ReadExReq MSHR miss cycles
system.l2cache.ReadExReq_mshr_miss_rate::.cpu.data     0.823529                       # mshr miss rate for ReadExReq accesses
system.l2cache.ReadExReq_mshr_miss_rate::total     0.823529                       # mshr miss rate for ReadExReq accesses
system.l2cache.ReadExReq_avg_mshr_miss_latency::.cpu.data 66571.428571                       # average ReadExReq mshr miss latency
system.l2cache.ReadExReq_avg_mshr_miss_latency::total 66571.428571                       # average ReadExReq mshr miss latency
system.l2cache.ReadSharedReq_hits::.cpu.inst          220                       # number of ReadSharedReq hits
system.l2cache.ReadSharedReq_hits::.cpu.data          113                       # number of ReadSharedReq hits
system.l2cache.ReadSharedReq_hits::.cpu.dcache.prefetcher           12                       # number of ReadSharedReq hits
system.l2cache.ReadSharedReq_hits::total          345                       # number of ReadSharedReq hits
system.l2cache.ReadSharedReq_misses::.cpu.inst          235                       # number of ReadSharedReq misses
system.l2cache.ReadSharedReq_misses::.cpu.data          112                       # number of ReadSharedReq misses
system.l2cache.ReadSharedReq_misses::.cpu.dcache.prefetcher           39                       # number of ReadSharedReq misses
system.l2cache.ReadSharedReq_misses::total          386                       # number of ReadSharedReq misses
system.l2cache.ReadSharedReq_miss_latency::.cpu.inst     15904000                       # number of ReadSharedReq miss cycles
system.l2cache.ReadSharedReq_miss_latency::.cpu.data      7667600                       # number of ReadSharedReq miss cycles
system.l2cache.ReadSharedReq_miss_latency::.cpu.dcache.prefetcher      2616361                       # number of ReadSharedReq miss cycles
system.l2cache.ReadSharedReq_miss_latency::total     26187961                       # number of ReadSharedReq miss cycles
system.l2cache.ReadSharedReq_accesses::.cpu.inst          455                       # number of ReadSharedReq accesses(hits+misses)
system.l2cache.ReadSharedReq_accesses::.cpu.data          225                       # number of ReadSharedReq accesses(hits+misses)
system.l2cache.ReadSharedReq_accesses::.cpu.dcache.prefetcher           51                       # number of ReadSharedReq accesses(hits+misses)
system.l2cache.ReadSharedReq_accesses::total          731                       # number of ReadSharedReq accesses(hits+misses)
system.l2cache.ReadSharedReq_miss_rate::.cpu.inst     0.516484                       # miss rate for ReadSharedReq accesses
system.l2cache.ReadSharedReq_miss_rate::.cpu.data     0.497778                       # miss rate for ReadSharedReq accesses
system.l2cache.ReadSharedReq_miss_rate::.cpu.dcache.prefetcher     0.764706                       # miss rate for ReadSharedReq accesses
system.l2cache.ReadSharedReq_miss_rate::total     0.528044                       # miss rate for ReadSharedReq accesses
system.l2cache.ReadSharedReq_avg_miss_latency::.cpu.inst 67676.595745                       # average ReadSharedReq miss latency
system.l2cache.ReadSharedReq_avg_miss_latency::.cpu.data 68460.714286                       # average ReadSharedReq miss latency
system.l2cache.ReadSharedReq_avg_miss_latency::.cpu.dcache.prefetcher 67086.179487                       # average ReadSharedReq miss latency
system.l2cache.ReadSharedReq_avg_miss_latency::total 67844.458549                       # average ReadSharedReq miss latency
system.l2cache.ReadSharedReq_mshr_misses::.cpu.inst          235                       # number of ReadSharedReq MSHR misses
system.l2cache.ReadSharedReq_mshr_misses::.cpu.data          112                       # number of ReadSharedReq MSHR misses
system.l2cache.ReadSharedReq_mshr_misses::.cpu.dcache.prefetcher           39                       # number of ReadSharedReq MSHR misses
system.l2cache.ReadSharedReq_mshr_misses::total          386                       # number of ReadSharedReq MSHR misses
system.l2cache.ReadSharedReq_mshr_miss_latency::.cpu.inst     14032000                       # number of ReadSharedReq MSHR miss cycles
system.l2cache.ReadSharedReq_mshr_miss_latency::.cpu.data      6771600                       # number of ReadSharedReq MSHR miss cycles
system.l2cache.ReadSharedReq_mshr_miss_latency::.cpu.dcache.prefetcher      2304361                       # number of ReadSharedReq MSHR miss cycles
system.l2cache.ReadSharedReq_mshr_miss_latency::total     23107961                       # number of ReadSharedReq MSHR miss cycles
system.l2cache.ReadSharedReq_mshr_miss_rate::.cpu.inst     0.516484                       # mshr miss rate for ReadSharedReq accesses
system.l2cache.ReadSharedReq_mshr_miss_rate::.cpu.data     0.497778                       # mshr miss rate for ReadSharedReq accesses
system.l2cache.ReadSharedReq_mshr_miss_rate::.cpu.dcache.prefetcher     0.764706                       # mshr miss rate for ReadSharedReq accesses
system.l2cache.ReadSharedReq_mshr_miss_rate::total     0.528044                       # mshr miss rate for ReadSharedReq accesses
system.l2cache.ReadSharedReq_avg_mshr_miss_latency::.cpu.inst 59710.638298                       # average ReadSharedReq mshr miss latency
system.l2cache.ReadSharedReq_avg_mshr_miss_latency::.cpu.data 60460.714286                       # average ReadSharedReq mshr miss latency
system.l2cache.ReadSharedReq_avg_mshr_miss_latency::.cpu.dcache.prefetcher 59086.179487                       # average ReadSharedReq mshr miss latency
system.l2cache.ReadSharedReq_avg_mshr_miss_latency::total 59865.183938                       # average ReadSharedReq mshr miss latency
system.l2cache.prefetcher.pwrStateResidencyTicks::UNDEFINED     28761600                       # Cumulative time (in ticks) in various power states
system.l2cache.tags.pwrStateResidencyTicks::UNDEFINED     28761600                       # Cumulative time (in ticks) in various power states
system.l2cache.tags.tagsinuse                    4096                       # Cycle average of tags in use
system.l2cache.tags.total_refs                  14012                       # Total number of references to valid blocks.
system.l2cache.tags.sampled_refs                 4506                       # Sample count of references to valid blocks.
system.l2cache.tags.avg_refs                 3.109632                       # Average number of references to valid blocks.
system.l2cache.tags.warmup_cycle                    0                       # Cycle when the warmup percentage was hit.
system.l2cache.tags.occ_blocks::.writebacks    42.354028                       # Average occupied blocks per requestor
system.l2cache.tags.occ_blocks::.cpu.inst  1122.640566                       # Average occupied blocks per requestor
system.l2cache.tags.occ_blocks::.cpu.data  1823.677068                       # Average occupied blocks per requestor
system.l2cache.tags.occ_blocks::.cpu.dcache.prefetcher   974.815850                       # Average occupied blocks per requestor
system.l2cache.tags.occ_blocks::.l2cache.prefetcher   132.512489                       # Average occupied blocks per requestor
system.l2cache.tags.occ_percent::.writebacks     0.010340                       # Average percentage of cache occupancy
system.l2cache.tags.occ_percent::.cpu.inst     0.274082                       # Average percentage of cache occupancy
system.l2cache.tags.occ_percent::.cpu.data     0.445234                       # Average percentage of cache occupancy
system.l2cache.tags.occ_percent::.cpu.dcache.prefetcher     0.237992                       # Average percentage of cache occupancy
system.l2cache.tags.occ_percent::.l2cache.prefetcher     0.032352                       # Average percentage of cache occupancy
system.l2cache.tags.occ_percent::total              1                       # Average percentage of cache occupancy
system.l2cache.tags.occ_task_id_blocks::1022         1048                       # Occupied blocks per task id
system.l2cache.tags.occ_task_id_blocks::1024         3048                       # Occupied blocks per task id
system.l2cache.tags.age_task_id_blocks_1022::0            8                       # Occupied blocks per task id
system.l2cache.tags.age_task_id_blocks_1022::1           49                       # Occupied blocks per task id
system.l2cache.tags.age_task_id_blocks_1022::2          971                       # Occupied blocks per task id
system.l2cache.tags.age_task_id_blocks_1022::3           20                       # Occupied blocks per task id
system.l2cache.tags.age_task_id_blocks_1024::0          177                       # Occupied blocks per task id
system.l2cache.tags.age_task_id_blocks_1024::1          331                       # Occupied blocks per task id
system.l2cache.tags.age_task_id_blocks_1024::2         2384                       # Occupied blocks per task id
system.l2cache.tags.age_task_id_blocks_1024::3          156                       # Occupied blocks per task id
system.l2cache.tags.occ_task_id_percent::1022     0.255859                       # Percentage of cache occupancy per task id
system.l2cache.tags.occ_task_id_percent::1024     0.744141                       # Percentage of cache occupancy per task id
system.l2cache.tags.tag_accesses                12362                       # Number of tag accesses
system.l2cache.tags.data_accesses               12362                       # Number of data accesses
system.mem_ctrl.pwrStateResidencyTicks::UNDEFINED     28761600                       # Cumulative time (in ticks) in various power states
system.mem_ctrl.bytes_read::.cpu.inst           14976                       # Number of bytes read from this memory
system.mem_ctrl.bytes_read::.cpu.data            8064                       # Number of bytes read from this memory
system.mem_ctrl.bytes_read::.cpu.dcache.prefetcher         2496                       # Number of bytes read from this memory
system.mem_ctrl.bytes_read::total               25536                       # Number of bytes read from this memory
system.mem_ctrl.bytes_inst_read::.cpu.inst        14976                       # Number of instructions bytes read from this memory
system.mem_ctrl.bytes_inst_read::total          14976                       # Number of instructions bytes read from this memory
system.mem_ctrl.bytes_written::.writebacks         1664                       # Number of bytes written to this memory
system.mem_ctrl.bytes_written::total             1664                       # Number of bytes written to this memory
system.mem_ctrl.num_reads::.cpu.inst              234                       # Number of read requests responded to by this memory
system.mem_ctrl.num_reads::.cpu.data              126                       # Number of read requests responded to by this memory
system.mem_ctrl.num_reads::.cpu.dcache.prefetcher           39                       # Number of read requests responded to by this memory
system.mem_ctrl.num_reads::total                  399                       # Number of read requests responded to by this memory
system.mem_ctrl.num_writes::.writebacks            26                       # Number of write requests responded to by this memory
system.mem_ctrl.num_writes::total                  26                       # Number of write requests responded to by this memory
system.mem_ctrl.bw_read::.cpu.inst          520694259                       # Total read bandwidth from this memory (bytes/s)
system.mem_ctrl.bw_read::.cpu.data          280373832                       # Total read bandwidth from this memory (bytes/s)
system.mem_ctrl.bw_read::.cpu.dcache.prefetcher     86782377                       # Total read bandwidth from this memory (bytes/s)
system.mem_ctrl.bw_read::total              887850467                       # Total read bandwidth from this memory (bytes/s)
system.mem_ctrl.bw_inst_read::.cpu.inst     520694259                       # Instruction read bandwidth from this memory (bytes/s)
system.mem_ctrl.bw_inst_read::total         520694259                       # Instruction read bandwidth from this memory (bytes/s)
system.mem_ctrl.bw_write::.writebacks        57854918                       # Write bandwidth from this memory (bytes/s)
system.mem_ctrl.bw_write::total              57854918                       # Write bandwidth from this memory (bytes/s)
system.mem_ctrl.bw_total::.writebacks        57854918                       # Total bandwidth to/from this memory (bytes/s)
system.mem_ctrl.bw_total::.cpu.inst         520694259                       # Total bandwidth to/from this memory (bytes/s)
system.mem_ctrl.bw_total::.cpu.data         280373832                       # Total bandwidth to/from this memory (bytes/s)
system.mem_ctrl.bw_total::.cpu.dcache.prefetcher     86782377                       # Total bandwidth to/from this memory (bytes/s)
system.mem_ctrl.bw_total::total             945705385                       # Total bandwidth to/from this memory (bytes/s)

---------- End Simulation Statistics   ----------
