
---------- Begin Simulation Statistics ----------
final_tick                                 1099142400                       # Number of ticks from beginning of simulation (restored from checkpoints and never reset)
host_inst_rate                                 184735                       # Simulator instruction rate (inst/s)
host_mem_usage                                4406852                       # Number of bytes of host memory used
host_op_rate                                   321977                       # Simulator op (including micro ops) rate (op/s)
host_seconds                                    11.25                       # Real time elapsed on the host
host_tick_rate                               97691933                       # Simulator tick rate (ticks/s)
sim_freq                                 1000000000000                       # Frequency of simulated ticks
sim_insts                                     2078454                       # Number of instructions simulated
sim_ops                                       3622588                       # Number of ops (including micro ops) simulated
sim_seconds                                  0.001099                       # Number of seconds simulated
sim_ticks                                  1099142400                       # Number of ticks simulated
system.cpu.branchPred.BTBCorrect                    0                       # Number of correct BTB predictions (this stat may not work properly.
system.cpu.branchPred.BTBHitPct              0.000000                       # BTB Hit Percentage
system.cpu.branchPred.BTBHits                       0                       # Number of BTB hits
system.cpu.branchPred.BTBLookups               438601                       # Number of BTB lookups
system.cpu.branchPred.RASInCorrect                 10                       # Number of incorrect RAS predictions.
system.cpu.branchPred.condIncorrect             24418                       # Number of conditional branches incorrect
system.cpu.branchPred.condPredicted            464321                       # Number of conditional branches predicted
system.cpu.branchPred.indirectHits             239318                       # Number of indirect target hits.
system.cpu.branchPred.indirectLookups          438601                       # Number of indirect predictor lookups.
system.cpu.branchPred.indirectMisses           199283                       # Number of indirect misses.
system.cpu.branchPred.lookups                  490747                       # Number of BP lookups
system.cpu.branchPred.usedRAS                   11507                       # Number of times the RAS was used to get a target.
system.cpu.branchPredindirectMispredicted        12327                       # Number of mispredicted indirect branches.
system.cpu.cc_regfile_reads                   2382267                       # number of cc regfile reads
system.cpu.cc_regfile_writes                  1939036                       # number of cc regfile writes
system.cpu.commit.amos                              0                       # Number of atomic instructions committed
system.cpu.commit.branchMispredicts             24530                       # The number of times a branch was mispredicted
system.cpu.commit.branches                     347592                       # Number of branches committed
system.cpu.commit.bw_lim_events                601867                       # number cycles where commit BW limit reached
system.cpu.commit.commitNonSpecStalls             760                       # The number of times commit has been forced to stall to communicate backwards
system.cpu.commit.commitSquashedInsts          884206                       # The number of squashed insts skipped by commit
system.cpu.commit.committedInsts              2078454                       # Number of instructions committed
system.cpu.commit.committedOps                3622588                       # Number of ops (including micro ops) committed
system.cpu.commit.committed_per_cycle::samples      2344417                       # Number of insts commited each cycle
system.cpu.commit.committed_per_cycle::mean     1.545198                       # Number of insts commited each cycle
system.cpu.commit.committed_per_cycle::stdev     1.724570                       # Number of insts commited each cycle
system.cpu.commit.committed_per_cycle::underflows            0      0.00%      0.00% # Number of insts commited each cycle
system.cpu.commit.committed_per_cycle::0      1159996     49.48%     49.48% # Number of insts commited each cycle
system.cpu.commit.committed_per_cycle::1       180045      7.68%     57.16% # Number of insts commited each cycle
system.cpu.commit.committed_per_cycle::2       172452      7.36%     64.51% # Number of insts commited each cycle
system.cpu.commit.committed_per_cycle::3       230057      9.81%     74.33% # Number of insts commited each cycle
system.cpu.commit.committed_per_cycle::4       601867     25.67%    100.00% # Number of insts commited each cycle
system.cpu.commit.committed_per_cycle::overflows            0      0.00%    100.00% # Number of insts commited each cycle
system.cpu.commit.committed_per_cycle::min_value            0                       # Number of insts commited each cycle
system.cpu.commit.committed_per_cycle::max_value            4                       # Number of insts commited each cycle
system.cpu.commit.committed_per_cycle::total      2344417                       # Number of insts commited each cycle
system.cpu.commit.fp_insts                      77641                       # Number of committed floating point instructions.
system.cpu.commit.function_calls                 9634                       # Number of function calls committed.
system.cpu.commit.int_insts                   3564541                       # Number of committed integer instructions.
system.cpu.commit.loads                        496019                       # Number of loads committed
system.cpu.commit.membars                           1                       # Number of memory barriers committed
system.cpu.commit.op_class_0::No_OpClass        20823      0.57%      0.57% # Class of committed instruction
system.cpu.commit.op_class_0::IntAlu          2846478     78.58%     79.15% # Class of committed instruction
system.cpu.commit.op_class_0::IntMult            1426      0.04%     79.19% # Class of committed instruction
system.cpu.commit.op_class_0::IntDiv            38160      1.05%     80.24% # Class of committed instruction
system.cpu.commit.op_class_0::FloatAdd           3028      0.08%     80.33% # Class of committed instruction
system.cpu.commit.op_class_0::FloatCmp              0      0.00%     80.33% # Class of committed instruction
system.cpu.commit.op_class_0::FloatCvt           1248      0.03%     80.36% # Class of committed instruction
system.cpu.commit.op_class_0::FloatMult             0      0.00%     80.36% # Class of committed instruction
system.cpu.commit.op_class_0::FloatMultAcc            0      0.00%     80.36% # Class of committed instruction
system.cpu.commit.op_class_0::FloatDiv              0      0.00%     80.36% # Class of committed instruction
system.cpu.commit.op_class_0::FloatMisc             0      0.00%     80.36% # Class of committed instruction
system.cpu.commit.op_class_0::FloatSqrt             0      0.00%     80.36% # Class of committed instruction
system.cpu.commit.op_class_0::SimdAdd            6274      0.17%     80.53% # Class of committed instruction
system.cpu.commit.op_class_0::SimdAddAcc            0      0.00%     80.53% # Class of committed instruction
system.cpu.commit.op_class_0::SimdAlu           11857      0.33%     80.86% # Class of committed instruction
system.cpu.commit.op_class_0::SimdCmp               0      0.00%     80.86% # Class of committed instruction
system.cpu.commit.op_class_0::SimdCvt           12774      0.35%     81.21% # Class of committed instruction
system.cpu.commit.op_class_0::SimdMisc           7815      0.22%     81.43% # Class of committed instruction
system.cpu.commit.op_class_0::SimdMult              0      0.00%     81.43% # Class of committed instruction
system.cpu.commit.op_class_0::SimdMultAcc            0      0.00%     81.43% # Class of committed instruction
system.cpu.commit.op_class_0::SimdShift          1242      0.03%     81.46% # Class of committed instruction
system.cpu.commit.op_class_0::SimdShiftAcc            0      0.00%     81.46% # Class of committed instruction
system.cpu.commit.op_class_0::SimdDiv               0      0.00%     81.46% # Class of committed instruction
system.cpu.commit.op_class_0::SimdSqrt              0      0.00%     81.46% # Class of committed instruction
system.cpu.commit.op_class_0::SimdFloatAdd            0      0.00%     81.46% # Class of committed instruction
system.cpu.commit.op_class_0::SimdFloatAlu            0      0.00%     81.46% # Class of committed instruction
system.cpu.commit.op_class_0::SimdFloatCmp            0      0.00%     81.46% # Class of committed instruction
system.cpu.commit.op_class_0::SimdFloatCvt            0      0.00%     81.46% # Class of committed instruction
system.cpu.commit.op_class_0::SimdFloatDiv            0      0.00%     81.46% # Class of committed instruction
system.cpu.commit.op_class_0::SimdFloatMisc            0      0.00%     81.46% # Class of committed instruction
system.cpu.commit.op_class_0::SimdFloatMult            0      0.00%     81.46% # Class of committed instruction
system.cpu.commit.op_class_0::SimdFloatMultAcc            0      0.00%     81.46% # Class of committed instruction
system.cpu.commit.op_class_0::SimdFloatSqrt            0      0.00%     81.46% # Class of committed instruction
system.cpu.commit.op_class_0::SimdReduceAdd            0      0.00%     81.46% # Class of committed instruction
system.cpu.commit.op_class_0::SimdReduceAlu            0      0.00%     81.46% # Class of committed instruction
system.cpu.commit.op_class_0::SimdReduceCmp            0      0.00%     81.46% # Class of committed instruction
system.cpu.commit.op_class_0::SimdFloatReduceAdd            0      0.00%     81.46% # Class of committed instruction
system.cpu.commit.op_class_0::SimdFloatReduceCmp            0      0.00%     81.46% # Class of committed instruction
system.cpu.commit.op_class_0::SimdAes               0      0.00%     81.46% # Class of committed instruction
system.cpu.commit.op_class_0::SimdAesMix            0      0.00%     81.46% # Class of committed instruction
system.cpu.commit.op_class_0::SimdSha1Hash            0      0.00%     81.46% # Class of committed instruction
system.cpu.commit.op_class_0::SimdSha1Hash2            0      0.00%     81.46% # Class of committed instruction
system.cpu.commit.op_class_0::SimdSha256Hash            0      0.00%     81.46% # Class of committed instruction
system.cpu.commit.op_class_0::SimdSha256Hash2            0      0.00%     81.46% # Class of committed instruction
system.cpu.commit.op_class_0::SimdShaSigma2            0      0.00%     81.46% # Class of committed instruction
system.cpu.commit.op_class_0::SimdShaSigma3            0      0.00%     81.46% # Class of committed instruction
system.cpu.commit.op_class_0::SimdPredAlu            0      0.00%     81.46% # Class of committed instruction
system.cpu.commit.op_class_0::MemRead          476241     13.15%     94.61% # Class of committed instruction
system.cpu.commit.op_class_0::MemWrite         163097      4.50%     99.11% # Class of committed instruction
system.cpu.commit.op_class_0::FloatMemRead        19778      0.55%     99.66% # Class of committed instruction
system.cpu.commit.op_class_0::FloatMemWrite        12347      0.34%    100.00% # Class of committed instruction
system.cpu.commit.op_class_0::IprAccess             0      0.00%    100.00% # Class of committed instruction
system.cpu.commit.op_class_0::InstPrefetch            0      0.00%    100.00% # Class of committed instruction
system.cpu.commit.op_class_0::total           3622588                       # Class of committed instruction
system.cpu.commit.refs                         671463                       # Number of memory references committed
system.cpu.commit.swp_count                         0                       # Number of s/w prefetches committed
system.cpu.commit.vec_insts                         0                       # Number of committed Vector instructions.
system.cpu.committedInsts                     2078454                       # Number of Instructions Simulated
system.cpu.committedOps                       3622588                       # Number of Ops (including micro ops) Simulated
system.cpu.cpi                               1.322068                       # CPI: Cycles Per Instruction
system.cpu.cpi_total                         1.322068                       # CPI: Total CPI of All Threads
system.cpu.dcache.prefetcher.num_hwpf_issued         8171                       # number of hwpf issued
system.cpu.dcache.prefetcher.pfBufferHit        34919                       # number of redundant prefetches already in prefetch queue
system.cpu.dcache.prefetcher.pfIdentified        50645                       # number of prefetch candidates identified
system.cpu.dcache.prefetcher.pfInCache              0                       # number of redundant prefetches already in cache/mshr dropped
system.cpu.dcache.prefetcher.pfRemovedFull            0                       # number of prefetches dropped due to prefetch queue size
system.cpu.dcache.prefetcher.pfSpanPage          4531                       # number of prefetches that crossed the page
system.cpu.decode.BlockedCycles               1025202                       # Number of cycles decode is blocked
system.cpu.decode.DecodedInsts                4724103                       # Number of instructions handled by decode
system.cpu.decode.IdleCycles                   299097                       # Number of cycles decode is idle
system.cpu.decode.RunCycles                   1147328                       # Number of cycles decode is running
system.cpu.decode.SquashCycles                  24589                       # Number of cycles decode is squashing
system.cpu.decode.UnblockCycles                 89357                       # Number of cycles decode is unblocking
system.cpu.dtb.rdAccesses                      578957                       # TLB accesses on read requests
system.cpu.dtb.rdMisses                          2040                       # TLB misses on read requests
system.cpu.dtb.wrAccesses                      194977                       # TLB accesses on write requests
system.cpu.dtb.wrMisses                           165                       # TLB misses on write requests
system.cpu.fetch.Branches                      490747                       # Number of branches that fetch encountered
system.cpu.fetch.CacheLines                    240942                       # Number of cache lines fetched
system.cpu.fetch.Cycles                       2227318                       # Number of cycles fetch has run and was not squashing or blocked
system.cpu.fetch.IcacheSquashes                  4673                       # Number of outstanding Icache misses that were squashed
system.cpu.fetch.IcacheWaitRetryStallCycles           17                       # Number of stall cycles due to full MSHR
system.cpu.fetch.Insts                        2847017                       # Number of instructions fetch has processed
system.cpu.fetch.MiscStallCycles                  119                       # Number of cycles fetch has spent waiting on interrupts, or bad addresses, or out of MSHRs
system.cpu.fetch.PendingQuiesceStallCycles            6                       # Number of stall cycles due to pending quiesce instructions
system.cpu.fetch.PendingTrapStallCycles           771                       # Number of stall cycles due to pending traps
system.cpu.fetch.SquashCycles                   49178                       # Number of cycles fetch has spent squashing
system.cpu.fetch.branchRate                  0.178593                       # Number of branch fetches per cycle
system.cpu.fetch.icacheStallCycles             332753                       # Number of cycles fetch is stalled on an Icache miss
system.cpu.fetch.predictedBranches             250825                       # Number of branches that fetch has predicted taken
system.cpu.fetch.rate                        1.036086                       # Number of inst fetches per cycle
system.cpu.fetch.rateDist::samples            2585573                       # Number of instructions fetched each cycle (Total)
system.cpu.fetch.rateDist::mean              1.934127                       # Number of instructions fetched each cycle (Total)
system.cpu.fetch.rateDist::stdev             1.930937                       # Number of instructions fetched each cycle (Total)
system.cpu.fetch.rateDist::underflows               0      0.00%      0.00% # Number of instructions fetched each cycle (Total)
system.cpu.fetch.rateDist::0                  1230573     47.59%     47.59% # Number of instructions fetched each cycle (Total)
system.cpu.fetch.rateDist::1                    74628      2.89%     50.48% # Number of instructions fetched each cycle (Total)
system.cpu.fetch.rateDist::2                    59516      2.30%     52.78% # Number of instructions fetched each cycle (Total)
system.cpu.fetch.rateDist::3                    76258      2.95%     55.73% # Number of instructions fetched each cycle (Total)
system.cpu.fetch.rateDist::4                  1144598     44.27%    100.00% # Number of instructions fetched each cycle (Total)
system.cpu.fetch.rateDist::overflows                0      0.00%    100.00% # Number of instructions fetched each cycle (Total)
system.cpu.fetch.rateDist::min_value                0                       # Number of instructions fetched each cycle (Total)
system.cpu.fetch.rateDist::max_value                4                       # Number of instructions fetched each cycle (Total)
system.cpu.fetch.rateDist::total              2585573                       # Number of instructions fetched each cycle (Total)
system.cpu.fp_regfile_reads                    127683                       # number of floating regfile reads
system.cpu.fp_regfile_writes                    70177                       # number of floating regfile writes
system.cpu.fuPool.fu_ticks_busy::IntALU(0)    218167600                       # Total ticks fu was busy
system.cpu.fuPool.fu_ticks_busy::IntALU(1)    218167600                       # Total ticks fu was busy
system.cpu.fuPool.fu_ticks_busy::IntALU(2)    218167200                       # Total ticks fu was busy
system.cpu.fuPool.fu_ticks_busy::IntALU(3)    218167200                       # Total ticks fu was busy
system.cpu.fuPool.fu_ticks_busy::IntALU(4)    218167200                       # Total ticks fu was busy
system.cpu.fuPool.fu_ticks_busy::IntALU(5)    218167200                       # Total ticks fu was busy
system.cpu.fuPool.fu_ticks_busy::IntMultDiv(0)      8751200                       # Total ticks fu was busy
system.cpu.fuPool.fu_ticks_busy::IntMultDiv(1)      8750800                       # Total ticks fu was busy
system.cpu.fuPool.fu_ticks_busy::FP_ALU(0)       588400                       # Total ticks fu was busy
system.cpu.fuPool.fu_ticks_busy::FP_ALU(1)       588400                       # Total ticks fu was busy
system.cpu.fuPool.fu_ticks_busy::FP_ALU(2)       587600                       # Total ticks fu was busy
system.cpu.fuPool.fu_ticks_busy::FP_ALU(3)       587600                       # Total ticks fu was busy
system.cpu.fuPool.fu_ticks_busy::FP_MultDiv(0)            0                       # Total ticks fu was busy
system.cpu.fuPool.fu_ticks_busy::FP_MultDiv(1)            0                       # Total ticks fu was busy
system.cpu.fuPool.fu_ticks_busy::SIMD_Unit(0)      4621600                       # Total ticks fu was busy
system.cpu.fuPool.fu_ticks_busy::SIMD_Unit(1)      4791600                       # Total ticks fu was busy
system.cpu.fuPool.fu_ticks_busy::SIMD_Unit(2)      4988000                       # Total ticks fu was busy
system.cpu.fuPool.fu_ticks_busy::SIMD_Unit(3)      4809200                       # Total ticks fu was busy
system.cpu.fuPool.fu_ticks_busy::PredALU(0)            0                       # Total ticks fu was busy
system.cpu.fuPool.fu_ticks_busy::RdWrPort(0)     78806000                       # Total ticks fu was busy
system.cpu.fuPool.fu_ticks_busy::RdWrPort(1)     78821600                       # Total ticks fu was busy
system.cpu.fuPool.fu_ticks_busy::RdWrPort(2)     78862400                       # Total ticks fu was busy
system.cpu.fuPool.fu_ticks_busy::RdWrPort(3)     78850000                       # Total ticks fu was busy
system.cpu.fuPool.fu_ticks_busy::IprPort(0)            0                       # Total ticks fu was busy
system.cpu.fuPool.fu_ticks_busy::total     1663408400                       # Total ticks fu was busy
system.cpu.icache.prefetcher.num_hwpf_issued            0                       # number of hwpf issued
system.cpu.icache.prefetcher.pfBufferHit            0                       # number of redundant prefetches already in prefetch queue
system.cpu.icache.prefetcher.pfIdentified            0                       # number of prefetch candidates identified
system.cpu.icache.prefetcher.pfInCache              0                       # number of redundant prefetches already in cache/mshr dropped
system.cpu.icache.prefetcher.pfRemovedFull            0                       # number of prefetches dropped due to prefetch queue size
system.cpu.icache.prefetcher.pfSpanPage             0                       # number of prefetches that crossed the page
system.cpu.idleCycles                          162284                       # Total number of cycles that the CPU has spent unscheduled due to idling
system.cpu.iew.branchMispredicts                29008                       # Number of branch mispredicts detected at execute
system.cpu.iew.exec_branches                   377295                       # Number of branches executed
system.cpu.iew.exec_nop                             0                       # number of nop insts executed
system.cpu.iew.exec_rate                     1.510522                       # Inst execution rate
system.cpu.iew.exec_refs                       775407                       # number of memory reference insts executed
system.cpu.iew.exec_stores                     194964                       # Number of stores executed
system.cpu.iew.exec_swp                             0                       # number of swp insts executed
system.cpu.iew.iewBlockCycles                  695527                       # Number of cycles IEW is blocking
system.cpu.iew.iewDispLoadInsts                611158                       # Number of dispatched load instructions
system.cpu.iew.iewDispNonSpecInsts                951                       # Number of dispatched non-speculative instructions
system.cpu.iew.iewDispSquashedInsts               549                       # Number of squashed instructions skipped by dispatch
system.cpu.iew.iewDispStoreInsts               205209                       # Number of dispatched store instructions
system.cpu.iew.iewDispatchedInsts             4506749                       # Number of instructions dispatched to IQ
system.cpu.iew.iewExecLoadInsts                580443                       # Number of load instructions executed
system.cpu.iew.iewExecSquashedInsts             34817                       # Number of squashed instructions skipped in execute
system.cpu.iew.iewExecutedInsts               4150698                       # Number of executed instructions
system.cpu.iew.iewIQFullEvents                   3410                       # Number of times the IQ has become full, causing a stall
system.cpu.iew.iewIdleCycles                        0                       # Number of cycles IEW is idle
system.cpu.iew.iewLSQFullEvents                  8476                       # Number of times the LSQ has become full, causing a stall
system.cpu.iew.iewSquashCycles                  24589                       # Number of cycles IEW is squashing
system.cpu.iew.iewUnblockCycles                 14779                       # Number of cycles IEW is unblocking
system.cpu.iew.lsq.thread0.blockedLoads             0                       # Number of blocked loads due to partial load-store forwarding
system.cpu.iew.lsq.thread0.cacheBlocked           628                       # Number of times an access to memory failed due to the cache being blocked
system.cpu.iew.lsq.thread0.forwLoads            40062                       # Number of loads that had data forwarded from stores
system.cpu.iew.lsq.thread0.ignoredResponses          244                       # Number of memory responses ignored because the instruction is squashed
system.cpu.iew.lsq.thread0.invAddrLoads             0                       # Number of loads ignored due to an invalid address
system.cpu.iew.lsq.thread0.invAddrSwpfs             0                       # Number of software prefetches ignored due to an invalid address
system.cpu.iew.lsq.thread0.memOrderViolation           71                       # Number of memory ordering violations
system.cpu.iew.lsq.thread0.rescheduledLoads            1                       # Number of loads that were rescheduled
system.cpu.iew.lsq.thread0.squashedLoads       115137                       # Number of loads squashed
system.cpu.iew.lsq.thread0.squashedStores        29764                       # Number of stores squashed
system.cpu.iew.memOrderViolationEvents             71                       # Number of memory order violations
system.cpu.iew.predictedNotTakenIncorrect        20776                       # Number of branches that were predicted not taken incorrectly
system.cpu.iew.predictedTakenIncorrect           8232                       # Number of branches that were predicted taken incorrectly
system.cpu.iew.wb_consumers                   5809642                       # num instructions consuming a value
system.cpu.iew.wb_count                       4128332                       # cumulative count of insts written-back
system.cpu.iew.wb_fanout                     0.567126                       # average fanout of values written-back
system.cpu.iew.wb_producers                   3294801                       # num instructions producing a value
system.cpu.iew.wb_rate                       1.502382                       # insts written-back per cycle
system.cpu.iew.wb_sent                        4135273                       # cumulative count of insts sent to commit
system.cpu.int_regfile_reads                  6429717                       # number of integer regfile reads
system.cpu.int_regfile_writes                 3563395                       # number of integer regfile writes
system.cpu.ipc                               0.756391                       # IPC: Instructions Per Cycle
system.cpu.ipc_total                         0.756391                       # IPC: Total IPC of All Threads
system.cpu.iq.FU_type_0::No_OpClass             26994      0.64%      0.64% # Type of FU issued
system.cpu.iq.FU_type_0::IntAlu               3272512     78.19%     78.83% # Type of FU issued
system.cpu.iq.FU_type_0::IntMult                 1462      0.03%     78.87% # Type of FU issued
system.cpu.iq.FU_type_0::IntDiv                 42293      1.01%     79.88% # Type of FU issued
system.cpu.iq.FU_type_0::FloatAdd                4594      0.11%     79.99% # Type of FU issued
system.cpu.iq.FU_type_0::FloatCmp                   0      0.00%     79.99% # Type of FU issued
system.cpu.iq.FU_type_0::FloatCvt                1286      0.03%     80.02% # Type of FU issued
system.cpu.iq.FU_type_0::FloatMult                  0      0.00%     80.02% # Type of FU issued
system.cpu.iq.FU_type_0::FloatMultAcc               0      0.00%     80.02% # Type of FU issued
system.cpu.iq.FU_type_0::FloatDiv                   0      0.00%     80.02% # Type of FU issued
system.cpu.iq.FU_type_0::FloatMisc                  0      0.00%     80.02% # Type of FU issued
system.cpu.iq.FU_type_0::FloatSqrt                  0      0.00%     80.02% # Type of FU issued
system.cpu.iq.FU_type_0::SimdAdd                 6952      0.17%     80.18% # Type of FU issued
system.cpu.iq.FU_type_0::SimdAddAcc                 0      0.00%     80.18% # Type of FU issued
system.cpu.iq.FU_type_0::SimdAlu                15666      0.37%     80.56% # Type of FU issued
system.cpu.iq.FU_type_0::SimdCmp                    0      0.00%     80.56% # Type of FU issued
system.cpu.iq.FU_type_0::SimdCvt                14670      0.35%     80.91% # Type of FU issued
system.cpu.iq.FU_type_0::SimdMisc                8426      0.20%     81.11% # Type of FU issued
system.cpu.iq.FU_type_0::SimdMult                   0      0.00%     81.11% # Type of FU issued
system.cpu.iq.FU_type_0::SimdMultAcc                0      0.00%     81.11% # Type of FU issued
system.cpu.iq.FU_type_0::SimdShift               2312      0.06%     81.16% # Type of FU issued
system.cpu.iq.FU_type_0::SimdShiftAcc               0      0.00%     81.16% # Type of FU issued
system.cpu.iq.FU_type_0::SimdDiv                    0      0.00%     81.16% # Type of FU issued
system.cpu.iq.FU_type_0::SimdSqrt                   0      0.00%     81.16% # Type of FU issued
system.cpu.iq.FU_type_0::SimdFloatAdd               0      0.00%     81.16% # Type of FU issued
system.cpu.iq.FU_type_0::SimdFloatAlu               0      0.00%     81.16% # Type of FU issued
system.cpu.iq.FU_type_0::SimdFloatCmp               0      0.00%     81.16% # Type of FU issued
system.cpu.iq.FU_type_0::SimdFloatCvt               0      0.00%     81.16% # Type of FU issued
system.cpu.iq.FU_type_0::SimdFloatDiv               0      0.00%     81.16% # Type of FU issued
system.cpu.iq.FU_type_0::SimdFloatMisc              0      0.00%     81.16% # Type of FU issued
system.cpu.iq.FU_type_0::SimdFloatMult              0      0.00%     81.16% # Type of FU issued
system.cpu.iq.FU_type_0::SimdFloatMultAcc            0      0.00%     81.16% # Type of FU issued
system.cpu.iq.FU_type_0::SimdFloatSqrt              0      0.00%     81.16% # Type of FU issued
system.cpu.iq.FU_type_0::SimdReduceAdd              0      0.00%     81.16% # Type of FU issued
system.cpu.iq.FU_type_0::SimdReduceAlu              0      0.00%     81.16% # Type of FU issued
system.cpu.iq.FU_type_0::SimdReduceCmp              0      0.00%     81.16% # Type of FU issued
system.cpu.iq.FU_type_0::SimdFloatReduceAdd            0      0.00%     81.16% # Type of FU issued
system.cpu.iq.FU_type_0::SimdFloatReduceCmp            0      0.00%     81.16% # Type of FU issued
system.cpu.iq.FU_type_0::SimdAes                    0      0.00%     81.16% # Type of FU issued
system.cpu.iq.FU_type_0::SimdAesMix                 0      0.00%     81.16% # Type of FU issued
system.cpu.iq.FU_type_0::SimdSha1Hash               0      0.00%     81.16% # Type of FU issued
system.cpu.iq.FU_type_0::SimdSha1Hash2              0      0.00%     81.16% # Type of FU issued
system.cpu.iq.FU_type_0::SimdSha256Hash             0      0.00%     81.16% # Type of FU issued
system.cpu.iq.FU_type_0::SimdSha256Hash2            0      0.00%     81.16% # Type of FU issued
system.cpu.iq.FU_type_0::SimdShaSigma2              0      0.00%     81.16% # Type of FU issued
system.cpu.iq.FU_type_0::SimdShaSigma3              0      0.00%     81.16% # Type of FU issued
system.cpu.iq.FU_type_0::SimdPredAlu                0      0.00%     81.16% # Type of FU issued
system.cpu.iq.FU_type_0::MemRead               564663     13.49%     94.66% # Type of FU issued
system.cpu.iq.FU_type_0::MemWrite              183932      4.39%     99.05% # Type of FU issued
system.cpu.iq.FU_type_0::FloatMemRead           26076      0.62%     99.67% # Type of FU issued
system.cpu.iq.FU_type_0::FloatMemWrite          13681      0.33%    100.00% # Type of FU issued
system.cpu.iq.FU_type_0::IprAccess                  0      0.00%    100.00% # Type of FU issued
system.cpu.iq.FU_type_0::InstPrefetch               0      0.00%    100.00% # Type of FU issued
system.cpu.iq.FU_type_0::total                4185519                       # Type of FU issued
system.cpu.iq.fp_alu_accesses                   95099                       # Number of floating point alu accesses
system.cpu.iq.fp_inst_queue_reads              191556                       # Number of floating instruction queue reads
system.cpu.iq.fp_inst_queue_wakeup_accesses        91531                       # Number of floating instruction queue wakeup accesses
system.cpu.iq.fp_inst_queue_writes             138925                       # Number of floating instruction queue writes
system.cpu.iq.fu_busy_cnt                           0                       # FU busy when requested
system.cpu.iq.fu_busy_rate                          0                       # FU busy rate (busy events/executed inst)
system.cpu.iq.fu_full::No_OpClass                   0                       # attempts to use FU when none available
system.cpu.iq.fu_full::IntAlu                       0                       # attempts to use FU when none available
system.cpu.iq.fu_full::IntMult                      0                       # attempts to use FU when none available
system.cpu.iq.fu_full::IntDiv                       0                       # attempts to use FU when none available
system.cpu.iq.fu_full::FloatAdd                     0                       # attempts to use FU when none available
system.cpu.iq.fu_full::FloatCmp                     0                       # attempts to use FU when none available
system.cpu.iq.fu_full::FloatCvt                     0                       # attempts to use FU when none available
system.cpu.iq.fu_full::FloatMult                    0                       # attempts to use FU when none available
system.cpu.iq.fu_full::FloatMultAcc                 0                       # attempts to use FU when none available
system.cpu.iq.fu_full::FloatDiv                     0                       # attempts to use FU when none available
system.cpu.iq.fu_full::FloatMisc                    0                       # attempts to use FU when none available
system.cpu.iq.fu_full::FloatSqrt                    0                       # attempts to use FU when none available
system.cpu.iq.fu_full::SimdAdd                      0                       # attempts to use FU when none available
system.cpu.iq.fu_full::SimdAddAcc                   0                       # attempts to use FU when none available
system.cpu.iq.fu_full::SimdAlu                      0                       # attempts to use FU when none available
system.cpu.iq.fu_full::SimdCmp                      0                       # attempts to use FU when none available
system.cpu.iq.fu_full::SimdCvt                      0                       # attempts to use FU when none available
system.cpu.iq.fu_full::SimdMisc                     0                       # attempts to use FU when none available
system.cpu.iq.fu_full::SimdMult                     0                       # attempts to use FU when none available
system.cpu.iq.fu_full::SimdMultAcc                  0                       # attempts to use FU when none available
system.cpu.iq.fu_full::SimdShift                    0                       # attempts to use FU when none available
system.cpu.iq.fu_full::SimdShiftAcc                 0                       # attempts to use FU when none available
system.cpu.iq.fu_full::SimdDiv                      0                       # attempts to use FU when none available
system.cpu.iq.fu_full::SimdSqrt                     0                       # attempts to use FU when none available
system.cpu.iq.fu_full::SimdFloatAdd                 0                       # attempts to use FU when none available
system.cpu.iq.fu_full::SimdFloatAlu                 0                       # attempts to use FU when none available
system.cpu.iq.fu_full::SimdFloatCmp                 0                       # attempts to use FU when none available
system.cpu.iq.fu_full::SimdFloatCvt                 0                       # attempts to use FU when none available
system.cpu.iq.fu_full::SimdFloatDiv                 0                       # attempts to use FU when none available
system.cpu.iq.fu_full::SimdFloatMisc                0                       # attempts to use FU when none available
system.cpu.iq.fu_full::SimdFloatMult                0                       # attempts to use FU when none available
system.cpu.iq.fu_full::SimdFloatMultAcc             0                       # attempts to use FU when none available
system.cpu.iq.fu_full::SimdFloatSqrt                0                       # attempts to use FU when none available
system.cpu.iq.fu_full::SimdReduceAdd                0                       # attempts to use FU when none available
system.cpu.iq.fu_full::SimdReduceAlu                0                       # attempts to use FU when none available
system.cpu.iq.fu_full::SimdReduceCmp                0                       # attempts to use FU when none available
system.cpu.iq.fu_full::SimdFloatReduceAdd            0                       # attempts to use FU when none available
system.cpu.iq.fu_full::SimdFloatReduceCmp            0                       # attempts to use FU when none available
system.cpu.iq.fu_full::SimdAes                      0                       # attempts to use FU when none available
system.cpu.iq.fu_full::SimdAesMix                   0                       # attempts to use FU when none available
system.cpu.iq.fu_full::SimdSha1Hash                 0                       # attempts to use FU when none available
system.cpu.iq.fu_full::SimdSha1Hash2                0                       # attempts to use FU when none available
system.cpu.iq.fu_full::SimdSha256Hash               0                       # attempts to use FU when none available
system.cpu.iq.fu_full::SimdSha256Hash2              0                       # attempts to use FU when none available
system.cpu.iq.fu_full::SimdShaSigma2                0                       # attempts to use FU when none available
system.cpu.iq.fu_full::SimdShaSigma3                0                       # attempts to use FU when none available
system.cpu.iq.fu_full::SimdPredAlu                  0                       # attempts to use FU when none available
system.cpu.iq.fu_full::MemRead                      0                       # attempts to use FU when none available
system.cpu.iq.fu_full::MemWrite                     0                       # attempts to use FU when none available
system.cpu.iq.fu_full::FloatMemRead                 0                       # attempts to use FU when none available
system.cpu.iq.fu_full::FloatMemWrite                0                       # attempts to use FU when none available
system.cpu.iq.fu_full::IprAccess                    0                       # attempts to use FU when none available
system.cpu.iq.fu_full::InstPrefetch                 0                       # attempts to use FU when none available
system.cpu.iq.int_alu_accesses                4063426                       # Number of integer alu accesses
system.cpu.iq.int_inst_queue_reads           10783011                       # Number of integer instruction queue reads
system.cpu.iq.int_inst_queue_wakeup_accesses      4036801                       # Number of integer instruction queue wakeup accesses
system.cpu.iq.int_inst_queue_writes           5252044                       # Number of integer instruction queue writes
system.cpu.iq.iqInstsAdded                    4505629                       # Number of instructions added to the IQ (excludes non-spec)
system.cpu.iq.iqInstsIssued                   4185519                       # Number of instructions issued
system.cpu.iq.iqNonSpecInstsAdded                1120                       # Number of non-speculative instructions added to the IQ
system.cpu.iq.iqSquashedInstsExamined          884150                       # Number of squashed instructions iterated over during squash; mainly for profiling
system.cpu.iq.iqSquashedInstsIssued             17960                       # Number of squashed instructions issued
system.cpu.iq.iqSquashedNonSpecRemoved            360                       # Number of squashed non-spec instructions that were removed
system.cpu.iq.iqSquashedOperandsExamined      1324073                       # Number of squashed operands that are examined and possibly removed from graph
system.cpu.iq.issued_per_cycle::samples       2585573                       # Number of insts issued each cycle
system.cpu.iq.issued_per_cycle::mean         1.618797                       # Number of insts issued each cycle
system.cpu.iq.issued_per_cycle::stdev        1.669328                       # Number of insts issued each cycle
system.cpu.iq.issued_per_cycle::underflows            0      0.00%      0.00% # Number of insts issued each cycle
system.cpu.iq.issued_per_cycle::0             1171469     45.31%     45.31% # Number of insts issued each cycle
system.cpu.iq.issued_per_cycle::1              174457      6.75%     52.06% # Number of insts issued each cycle
system.cpu.iq.issued_per_cycle::2              302241     11.69%     63.74% # Number of insts issued each cycle
system.cpu.iq.issued_per_cycle::3              343044     13.27%     77.01% # Number of insts issued each cycle
system.cpu.iq.issued_per_cycle::4              594362     22.99%    100.00% # Number of insts issued each cycle
system.cpu.iq.issued_per_cycle::overflows            0      0.00%    100.00% # Number of insts issued each cycle
system.cpu.iq.issued_per_cycle::min_value            0                       # Number of insts issued each cycle
system.cpu.iq.issued_per_cycle::max_value            4                       # Number of insts issued each cycle
system.cpu.iq.issued_per_cycle::total         2585573                       # Number of insts issued each cycle
system.cpu.iq.rate                           1.523194                       # Inst issue rate
system.cpu.iq.vec_alu_accesses                      0                       # Number of vector alu accesses
system.cpu.iq.vec_inst_queue_reads                  0                       # Number of vector instruction queue reads
system.cpu.iq.vec_inst_queue_wakeup_accesses            0                       # Number of vector instruction queue wakeup accesses
system.cpu.iq.vec_inst_queue_writes                 0                       # Number of vector instruction queue writes
system.cpu.itb.rdAccesses                           0                       # TLB accesses on read requests
system.cpu.itb.rdMisses                             0                       # TLB misses on read requests
system.cpu.itb.wrAccesses                      241071                       # TLB accesses on write requests
system.cpu.itb.wrMisses                           381                       # TLB misses on write requests
system.cpu.memDep0.conflictingLoads              7835                       # Number of conflicting loads.
system.cpu.memDep0.conflictingStores             2439                       # Number of conflicting stores.
system.cpu.memDep0.insertedLoads               611158                       # Number of loads inserted to the mem dependence unit.
system.cpu.memDep0.insertedStores              205209                       # Number of stores inserted to the mem dependence unit.
system.cpu.misc_regfile_reads                 1565147                       # number of misc regfile reads
system.cpu.misc_regfile_writes                    702                       # number of misc regfile writes
system.cpu.numCycles                          2747857                       # number of cpu cycles simulated
system.cpu.numWorkItemsCompleted                    0                       # number of work items this cpu completed
system.cpu.numWorkItemsStarted                      0                       # number of work items this cpu started
system.cpu.process.numSyscalls                     57                       # Number of system calls
system.cpu.rename.BlockCycles                  842389                       # Number of cycles rename is blocking
system.cpu.rename.CommittedMaps               4953571                       # Number of HB maps that are committed
system.cpu.rename.FullRegisterEvents               54                       # Number of times there has been no free registers
system.cpu.rename.IQFullEvents                  46793                       # Number of times rename has blocked due to IQ full
system.cpu.rename.IdleCycles                   349771                       # Number of cycles rename is idle
system.cpu.rename.LQFullEvents                  13881                       # Number of times rename has blocked due to LQ full
system.cpu.rename.ROBFullEvents                  4586                       # Number of times rename has blocked due to ROB full
system.cpu.rename.RenameLookups              12146513                       # Number of register rename lookups that rename has made
system.cpu.rename.RenamedInsts                4648612                       # Number of instructions processed by rename
system.cpu.rename.RenamedOperands             6346939                       # Number of destination operands rename has renamed
system.cpu.rename.RunCycles                   1177548                       # Number of cycles rename is running
system.cpu.rename.SQFullEvents                  72399                       # Number of times rename has blocked due to SQ full
system.cpu.rename.SquashCycles                  24589                       # Number of cycles rename is squashing
system.cpu.rename.UnblockCycles                170817                       # Number of cycles rename is unblocking
system.cpu.rename.UndoneMaps                  1393342                       # Number of HB maps that are undone due to squashing
system.cpu.rename.fp_rename_lookups            165237                       # Number of floating rename lookups
system.cpu.rename.int_rename_lookups          7379632                       # Number of integer rename lookups
system.cpu.rename.serializeStallCycles          20459                       # count of cycles rename stalled for serializing inst
system.cpu.rename.serializingInsts                902                       # count of serializing insts renamed
system.cpu.rename.skidInsts                    208197                       # count of insts added to the skid buffer
system.cpu.rename.tempSerializingInsts            957                       # count of temporary serializing insts renamed
system.cpu.rob.rob_reads                      6249344                       # The number of ROB reads
system.cpu.rob.rob_writes                     9255643                       # The number of ROB writes
system.cpu.timesIdled                            1639                       # Number of times that the entire CPU went into an idle state and unscheduled itself
system.l2bus.snoop_filter.hit_multi_requests           13                       # Number of requests hitting in the snoop filter with multiple (>1) holders of the requested data.
system.l2bus.snoop_filter.hit_multi_snoops            0                       # Number of snoops hitting in the snoop filter with multiple (>1) holders of the requested data.
system.l2bus.snoop_filter.hit_single_requests        18574                       # Number of requests hitting in the snoop filter with a single holder of the requested data.
system.l2bus.snoop_filter.hit_single_snoops          439                       # Number of snoops hitting in the snoop filter with a single holder of the requested data.
system.l2bus.snoop_filter.tot_requests          38428                       # Total number of requests made to the snoop filter.
system.l2bus.snoop_filter.tot_snoops              439                       # Total number of snoops made to the snoop filter.
system.l2cache.prefetcher.num_hwpf_issued          661                       # number of hwpf issued
system.l2cache.prefetcher.pfBufferHit               0                       # number of redundant prefetches already in prefetch queue
system.l2cache.prefetcher.pfIdentified            661                       # number of prefetch candidates identified
system.l2cache.prefetcher.pfInCache                 0                       # number of redundant prefetches already in cache/mshr dropped
system.l2cache.prefetcher.pfRemovedFull             0                       # number of prefetches dropped due to prefetch queue size
system.l2cache.prefetcher.pfSpanPage               91                       # number of prefetches that crossed the page
system.membus.snoop_filter.hit_multi_requests            0                       # Number of requests hitting in the snoop filter with multiple (>1) holders of the requested data.
system.membus.snoop_filter.hit_multi_snoops            0                       # Number of snoops hitting in the snoop filter with multiple (>1) holders of the requested data.
system.membus.snoop_filter.hit_single_requests         9447                       # Number of requests hitting in the snoop filter with a single holder of the requested data.
system.membus.snoop_filter.hit_single_snoops            0                       # Number of snoops hitting in the snoop filter with a single holder of the requested data.
system.membus.snoop_filter.tot_requests         23016                       # Total number of requests made to the snoop filter.
system.membus.snoop_filter.tot_snoops               0                       # Total number of snoops made to the snoop filter.
system.membus.pwrStateResidencyTicks::UNDEFINED   1099142400                       # Cumulative time (in ticks) in various power states
system.membus.trans_dist::ReadResp              12242                       # Transaction distribution
system.membus.trans_dist::WritebackDirty         1349                       # Transaction distribution
system.membus.trans_dist::CleanEvict             8098                       # Transaction distribution
system.membus.trans_dist::ReadExReq              1327                       # Transaction distribution
system.membus.trans_dist::ReadExResp             1327                       # Transaction distribution
system.membus.trans_dist::ReadSharedReq         12242                       # Transaction distribution
system.membus.pkt_count_system.l2cache.mem_side::system.mem_ctrl.port        36585                       # Packet count per connected master and slave (bytes)
system.membus.pkt_count_system.l2cache.mem_side::total        36585                       # Packet count per connected master and slave (bytes)
system.membus.pkt_count::total                  36585                       # Packet count per connected master and slave (bytes)
system.membus.pkt_size_system.l2cache.mem_side::system.mem_ctrl.port       954752                       # Cumulative packet size per connected master and slave (bytes)
system.membus.pkt_size_system.l2cache.mem_side::total       954752                       # Cumulative packet size per connected master and slave (bytes)
system.membus.pkt_size::total                  954752                       # Cumulative packet size per connected master and slave (bytes)
system.membus.snoops                                0                       # Total snoops (count)
system.membus.snoopTraffic                          0                       # Total snoop traffic (bytes)
system.membus.snoop_fanout::samples             13569                       # Request fanout histogram
system.membus.snoop_fanout::mean                    0                       # Request fanout histogram
system.membus.snoop_fanout::stdev                   0                       # Request fanout histogram
system.membus.snoop_fanout::underflows              0      0.00%      0.00% # Request fanout histogram
system.membus.snoop_fanout::0                   13569    100.00%    100.00% # Request fanout histogram
system.membus.snoop_fanout::1                       0      0.00%    100.00% # Request fanout histogram
system.membus.snoop_fanout::overflows               0      0.00%    100.00% # Request fanout histogram
system.membus.snoop_fanout::min_value               0                       # Request fanout histogram
system.membus.snoop_fanout::max_value               0                       # Request fanout histogram
system.membus.snoop_fanout::total               13569                       # Request fanout histogram
system.membus.reqLayer2.occupancy            11389029                       # Layer occupancy (ticks)
system.membus.reqLayer2.utilization               1.0                       # Layer utilization (%)
system.membus.respLayer0.occupancy           29468471                       # Layer occupancy (ticks)
system.membus.respLayer0.utilization              2.7                       # Layer utilization (%)
system.l2bus.pwrStateResidencyTicks::UNDEFINED   1099142400                       # Cumulative time (in ticks) in various power states
system.l2bus.trans_dist::ReadResp               17764                       # Transaction distribution
system.l2bus.trans_dist::WritebackDirty          4124                       # Transaction distribution
system.l2bus.trans_dist::CleanEvict             23983                       # Transaction distribution
system.l2bus.trans_dist::HardPFReq                934                       # Transaction distribution
system.l2bus.trans_dist::ReadExReq               2090                       # Transaction distribution
system.l2bus.trans_dist::ReadExResp              2090                       # Transaction distribution
system.l2bus.trans_dist::ReadSharedReq          17764                       # Transaction distribution
system.l2bus.pkt_count_system.cpu.icache.mem_side::system.l2cache.cpu_side         8447                       # Packet count per connected master and slave (bytes)
system.l2bus.pkt_count_system.cpu.dcache.mem_side::system.l2cache.cpu_side        49830                       # Packet count per connected master and slave (bytes)
system.l2bus.pkt_count::total                   58277                       # Packet count per connected master and slave (bytes)
system.l2bus.pkt_size_system.cpu.icache.mem_side::system.l2cache.cpu_side       185664                       # Cumulative packet size per connected master and slave (bytes)
system.l2bus.pkt_size_system.cpu.dcache.mem_side::system.l2cache.cpu_side      1262272                       # Cumulative packet size per connected master and slave (bytes)
system.l2bus.pkt_size::total                  1447936                       # Cumulative packet size per connected master and slave (bytes)
system.l2bus.snoops                             10472                       # Total snoops (count)
system.l2bus.snoopTraffic                       86656                       # Total snoop traffic (bytes)
system.l2bus.snoop_fanout::samples              30321                       # Request fanout histogram
system.l2bus.snoop_fanout::mean              0.014907                       # Request fanout histogram
system.l2bus.snoop_fanout::stdev             0.121183                       # Request fanout histogram
system.l2bus.snoop_fanout::underflows               0      0.00%      0.00% # Request fanout histogram
system.l2bus.snoop_fanout::0                    29869     98.51%     98.51% # Request fanout histogram
system.l2bus.snoop_fanout::1                      452      1.49%    100.00% # Request fanout histogram
system.l2bus.snoop_fanout::2                        0      0.00%    100.00% # Request fanout histogram
system.l2bus.snoop_fanout::overflows                0      0.00%    100.00% # Request fanout histogram
system.l2bus.snoop_fanout::min_value                0                       # Request fanout histogram
system.l2bus.snoop_fanout::max_value                1                       # Request fanout histogram
system.l2bus.snoop_fanout::total                30321                       # Request fanout histogram
system.l2bus.respLayer1.occupancy            20343198                       # Layer occupancy (ticks)
system.l2bus.respLayer1.utilization               1.9                       # Layer utilization (%)
system.l2bus.reqLayer0.occupancy             19021014                       # Layer occupancy (ticks)
system.l2bus.reqLayer0.utilization                1.7                       # Layer utilization (%)
system.l2bus.respLayer0.occupancy             3482799                       # Layer occupancy (ticks)
system.l2bus.respLayer0.utilization               0.3                       # Layer utilization (%)
system.clk_domain.clock                           400                       # Clock period in ticks
system.clk_domain.voltage_domain.voltage            1                       # Voltage in Volts
system.cpu.pwrStateResidencyTicks::ON      1099142400                       # Cumulative time (in ticks) in various power states
system.cpu.icache.pwrStateResidencyTicks::UNDEFINED   1099142400                       # Cumulative time (in ticks) in various power states
system.cpu.icache.demand_hits::.cpu.inst       237344                       # number of demand (read+write) hits
system.cpu.icache.demand_hits::total           237344                       # number of demand (read+write) hits
system.cpu.icache.overall_hits::.cpu.inst       237344                       # number of overall hits
system.cpu.icache.overall_hits::total          237344                       # number of overall hits
system.cpu.icache.demand_misses::.cpu.inst         3598                       # number of demand (read+write) misses
system.cpu.icache.demand_misses::total           3598                       # number of demand (read+write) misses
system.cpu.icache.overall_misses::.cpu.inst         3598                       # number of overall misses
system.cpu.icache.overall_misses::total          3598                       # number of overall misses
system.cpu.icache.demand_miss_latency::.cpu.inst    177735199                       # number of demand (read+write) miss cycles
system.cpu.icache.demand_miss_latency::total    177735199                       # number of demand (read+write) miss cycles
system.cpu.icache.overall_miss_latency::.cpu.inst    177735199                       # number of overall miss cycles
system.cpu.icache.overall_miss_latency::total    177735199                       # number of overall miss cycles
system.cpu.icache.demand_accesses::.cpu.inst       240942                       # number of demand (read+write) accesses
system.cpu.icache.demand_accesses::total       240942                       # number of demand (read+write) accesses
system.cpu.icache.overall_accesses::.cpu.inst       240942                       # number of overall (read+write) accesses
system.cpu.icache.overall_accesses::total       240942                       # number of overall (read+write) accesses
system.cpu.icache.demand_miss_rate::.cpu.inst     0.014933                       # miss rate for demand accesses
system.cpu.icache.demand_miss_rate::total     0.014933                       # miss rate for demand accesses
system.cpu.icache.overall_miss_rate::.cpu.inst     0.014933                       # miss rate for overall accesses
system.cpu.icache.overall_miss_rate::total     0.014933                       # miss rate for overall accesses
system.cpu.icache.demand_avg_miss_latency::.cpu.inst 49398.332129                       # average overall miss latency
system.cpu.icache.demand_avg_miss_latency::total 49398.332129                       # average overall miss latency
system.cpu.icache.overall_avg_miss_latency::.cpu.inst 49398.332129                       # average overall miss latency
system.cpu.icache.overall_avg_miss_latency::total 49398.332129                       # average overall miss latency
system.cpu.icache.blocked_cycles::no_mshrs           52                       # number of cycles access was blocked
system.cpu.icache.blocked_cycles::no_targets            0                       # number of cycles access was blocked
system.cpu.icache.blocked::no_mshrs                 2                       # number of cycles access was blocked
system.cpu.icache.blocked::no_targets               0                       # number of cycles access was blocked
system.cpu.icache.avg_blocked_cycles::no_mshrs           26                       # average number of cycles each access was blocked
system.cpu.icache.avg_blocked_cycles::no_targets          nan                       # average number of cycles each access was blocked
system.cpu.icache.writebacks::.writebacks            2                       # number of writebacks
system.cpu.icache.writebacks::total                 2                       # number of writebacks
system.cpu.icache.demand_mshr_hits::.cpu.inst          696                       # number of demand (read+write) MSHR hits
system.cpu.icache.demand_mshr_hits::total          696                       # number of demand (read+write) MSHR hits
system.cpu.icache.overall_mshr_hits::.cpu.inst          696                       # number of overall MSHR hits
system.cpu.icache.overall_mshr_hits::total          696                       # number of overall MSHR hits
system.cpu.icache.demand_mshr_misses::.cpu.inst         2902                       # number of demand (read+write) MSHR misses
system.cpu.icache.demand_mshr_misses::total         2902                       # number of demand (read+write) MSHR misses
system.cpu.icache.overall_mshr_misses::.cpu.inst         2902                       # number of overall MSHR misses
system.cpu.icache.overall_mshr_misses::total         2902                       # number of overall MSHR misses
system.cpu.icache.demand_mshr_miss_latency::.cpu.inst    143324399                       # number of demand (read+write) MSHR miss cycles
system.cpu.icache.demand_mshr_miss_latency::total    143324399                       # number of demand (read+write) MSHR miss cycles
system.cpu.icache.overall_mshr_miss_latency::.cpu.inst    143324399                       # number of overall MSHR miss cycles
system.cpu.icache.overall_mshr_miss_latency::total    143324399                       # number of overall MSHR miss cycles
system.cpu.icache.demand_mshr_miss_rate::.cpu.inst     0.012044                       # mshr miss rate for demand accesses
system.cpu.icache.demand_mshr_miss_rate::total     0.012044                       # mshr miss rate for demand accesses
system.cpu.icache.overall_mshr_miss_rate::.cpu.inst     0.012044                       # mshr miss rate for overall accesses
system.cpu.icache.overall_mshr_miss_rate::total     0.012044                       # mshr miss rate for overall accesses
system.cpu.icache.demand_avg_mshr_miss_latency::.cpu.inst 49388.145762                       # average overall mshr miss latency
system.cpu.icache.demand_avg_mshr_miss_latency::total 49388.145762                       # average overall mshr miss latency
system.cpu.icache.overall_avg_mshr_miss_latency::.cpu.inst 49388.145762                       # average overall mshr miss latency
system.cpu.icache.overall_avg_mshr_miss_latency::total 49388.145762                       # average overall mshr miss latency
system.cpu.icache.replacements                   2646                       # number of replacements
system.cpu.icache.ReadReq_hits::.cpu.inst       237344                       # number of ReadReq hits
system.cpu.icache.ReadReq_hits::total          237344                       # number of ReadReq hits
system.cpu.icache.ReadReq_misses::.cpu.inst         3598                       # number of ReadReq misses
system.cpu.icache.ReadReq_misses::total          3598                       # number of ReadReq misses
system.cpu.icache.ReadReq_miss_latency::.cpu.inst    177735199                       # number of ReadReq miss cycles
system.cpu.icache.ReadReq_miss_latency::total    177735199                       # number of ReadReq miss cycles
system.cpu.icache.ReadReq_accesses::.cpu.inst       240942                       # number of ReadReq accesses(hits+misses)
system.cpu.icache.ReadReq_accesses::total       240942                       # number of ReadReq accesses(hits+misses)
system.cpu.icache.ReadReq_miss_rate::.cpu.inst     0.014933                       # miss rate for ReadReq accesses
system.cpu.icache.ReadReq_miss_rate::total     0.014933                       # miss rate for ReadReq accesses
system.cpu.icache.ReadReq_avg_miss_latency::.cpu.inst 49398.332129                       # average ReadReq miss latency
system.cpu.icache.ReadReq_avg_miss_latency::total 49398.332129                       # average ReadReq miss latency
system.cpu.icache.ReadReq_mshr_hits::.cpu.inst          696                       # number of ReadReq MSHR hits
system.cpu.icache.ReadReq_mshr_hits::total          696                       # number of ReadReq MSHR hits
system.cpu.icache.ReadReq_mshr_misses::.cpu.inst         2902                       # number of ReadReq MSHR misses
system.cpu.icache.ReadReq_mshr_misses::total         2902                       # number of ReadReq MSHR misses
system.cpu.icache.ReadReq_mshr_miss_latency::.cpu.inst    143324399                       # number of ReadReq MSHR miss cycles
system.cpu.icache.ReadReq_mshr_miss_latency::total    143324399                       # number of ReadReq MSHR miss cycles
system.cpu.icache.ReadReq_mshr_miss_rate::.cpu.inst     0.012044                       # mshr miss rate for ReadReq accesses
system.cpu.icache.ReadReq_mshr_miss_rate::total     0.012044                       # mshr miss rate for ReadReq accesses
system.cpu.icache.ReadReq_avg_mshr_miss_latency::.cpu.inst 49388.145762                       # average ReadReq mshr miss latency
system.cpu.icache.ReadReq_avg_mshr_miss_latency::total 49388.145762                       # average ReadReq mshr miss latency
system.cpu.icache.prefetcher.pwrStateResidencyTicks::UNDEFINED   1099142400                       # Cumulative time (in ticks) in various power states
system.cpu.icache.tags.pwrStateResidencyTicks::UNDEFINED   1099142400                       # Cumulative time (in ticks) in various power states
system.cpu.icache.tags.tagsinuse           253.498611                       # Cycle average of tags in use
system.cpu.icache.tags.total_refs              233574                       # Total number of references to valid blocks.
system.cpu.icache.tags.sampled_refs              2646                       # Sample count of references to valid blocks.
system.cpu.icache.tags.avg_refs             88.274376                       # Average number of references to valid blocks.
system.cpu.icache.tags.warmup_cycle             66400                       # Cycle when the warmup percentage was hit.
system.cpu.icache.tags.occ_blocks::.cpu.inst   253.498611                       # Average occupied blocks per requestor
system.cpu.icache.tags.occ_percent::.cpu.inst     0.990229                       # Average percentage of cache occupancy
system.cpu.icache.tags.occ_percent::total     0.990229                       # Average percentage of cache occupancy
system.cpu.icache.tags.occ_task_id_blocks::1024          256                       # Occupied blocks per task id
system.cpu.icache.tags.age_task_id_blocks_1024::0          108                       # Occupied blocks per task id
system.cpu.icache.tags.age_task_id_blocks_1024::1          127                       # Occupied blocks per task id
system.cpu.icache.tags.age_task_id_blocks_1024::2           20                       # Occupied blocks per task id
system.cpu.icache.tags.age_task_id_blocks_1024::3            1                       # Occupied blocks per task id
system.cpu.icache.tags.occ_task_id_percent::1024            1                       # Percentage of cache occupancy per task id
system.cpu.icache.tags.tag_accesses            484786                       # Number of tag accesses
system.cpu.icache.tags.data_accesses           484786                       # Number of data accesses
system.cpu.dtb.walker.pwrStateResidencyTicks::UNDEFINED   1099142400                       # Cumulative time (in ticks) in various power states
system.cpu.interrupts.clk_domain.clock           6400                       # Clock period in ticks
system.cpu.itb.walker.pwrStateResidencyTicks::UNDEFINED   1099142400                       # Cumulative time (in ticks) in various power states
system.cpu.dcache.pwrStateResidencyTicks::UNDEFINED   1099142400                       # Cumulative time (in ticks) in various power states
system.cpu.dcache.demand_hits::.cpu.data       678255                       # number of demand (read+write) hits
system.cpu.dcache.demand_hits::total           678255                       # number of demand (read+write) hits
system.cpu.dcache.overall_hits::.cpu.data       678255                       # number of overall hits
system.cpu.dcache.overall_hits::total          678255                       # number of overall hits
system.cpu.dcache.demand_misses::.cpu.data        34975                       # number of demand (read+write) misses
system.cpu.dcache.demand_misses::total          34975                       # number of demand (read+write) misses
system.cpu.dcache.overall_misses::.cpu.data        34975                       # number of overall misses
system.cpu.dcache.overall_misses::total         34975                       # number of overall misses
system.cpu.dcache.demand_miss_latency::.cpu.data   1690578399                       # number of demand (read+write) miss cycles
system.cpu.dcache.demand_miss_latency::total   1690578399                       # number of demand (read+write) miss cycles
system.cpu.dcache.overall_miss_latency::.cpu.data   1690578399                       # number of overall miss cycles
system.cpu.dcache.overall_miss_latency::total   1690578399                       # number of overall miss cycles
system.cpu.dcache.demand_accesses::.cpu.data       713230                       # number of demand (read+write) accesses
system.cpu.dcache.demand_accesses::total       713230                       # number of demand (read+write) accesses
system.cpu.dcache.overall_accesses::.cpu.data       713230                       # number of overall (read+write) accesses
system.cpu.dcache.overall_accesses::total       713230                       # number of overall (read+write) accesses
system.cpu.dcache.demand_miss_rate::.cpu.data     0.049037                       # miss rate for demand accesses
system.cpu.dcache.demand_miss_rate::total     0.049037                       # miss rate for demand accesses
system.cpu.dcache.overall_miss_rate::.cpu.data     0.049037                       # miss rate for overall accesses
system.cpu.dcache.overall_miss_rate::total     0.049037                       # miss rate for overall accesses
system.cpu.dcache.demand_avg_miss_latency::.cpu.data 48336.766233                       # average overall miss latency
system.cpu.dcache.demand_avg_miss_latency::total 48336.766233                       # average overall miss latency
system.cpu.dcache.overall_avg_miss_latency::.cpu.data 48336.766233                       # average overall miss latency
system.cpu.dcache.overall_avg_miss_latency::total 48336.766233                       # average overall miss latency
system.cpu.dcache.blocked_cycles::no_mshrs        28599                       # number of cycles access was blocked
system.cpu.dcache.blocked_cycles::no_targets          181                       # number of cycles access was blocked
system.cpu.dcache.blocked::no_mshrs               784                       # number of cycles access was blocked
system.cpu.dcache.blocked::no_targets               2                       # number of cycles access was blocked
system.cpu.dcache.avg_blocked_cycles::no_mshrs    36.478316                       # average number of cycles each access was blocked
system.cpu.dcache.avg_blocked_cycles::no_targets    90.500000                       # average number of cycles each access was blocked
system.cpu.dcache.unused_prefetches              1767                       # number of HardPF blocks evicted w/o reference
system.cpu.dcache.writebacks::.writebacks         2773                       # number of writebacks
system.cpu.dcache.writebacks::total              2773                       # number of writebacks
system.cpu.dcache.demand_mshr_hits::.cpu.data        22362                       # number of demand (read+write) MSHR hits
system.cpu.dcache.demand_mshr_hits::total        22362                       # number of demand (read+write) MSHR hits
system.cpu.dcache.overall_mshr_hits::.cpu.data        22362                       # number of overall MSHR hits
system.cpu.dcache.overall_mshr_hits::total        22362                       # number of overall MSHR hits
system.cpu.dcache.demand_mshr_misses::.cpu.data        12613                       # number of demand (read+write) MSHR misses
system.cpu.dcache.demand_mshr_misses::total        12613                       # number of demand (read+write) MSHR misses
system.cpu.dcache.overall_mshr_misses::.cpu.data        12613                       # number of overall MSHR misses
system.cpu.dcache.overall_mshr_misses::.cpu.dcache.prefetcher         4339                       # number of overall MSHR misses
system.cpu.dcache.overall_mshr_misses::total        16952                       # number of overall MSHR misses
system.cpu.dcache.demand_mshr_miss_latency::.cpu.data    579287999                       # number of demand (read+write) MSHR miss cycles
system.cpu.dcache.demand_mshr_miss_latency::total    579287999                       # number of demand (read+write) MSHR miss cycles
system.cpu.dcache.overall_mshr_miss_latency::.cpu.data    579287999                       # number of overall MSHR miss cycles
system.cpu.dcache.overall_mshr_miss_latency::.cpu.dcache.prefetcher    248466103                       # number of overall MSHR miss cycles
system.cpu.dcache.overall_mshr_miss_latency::total    827754102                       # number of overall MSHR miss cycles
system.cpu.dcache.demand_mshr_miss_rate::.cpu.data     0.017684                       # mshr miss rate for demand accesses
system.cpu.dcache.demand_mshr_miss_rate::total     0.017684                       # mshr miss rate for demand accesses
system.cpu.dcache.overall_mshr_miss_rate::.cpu.data     0.017684                       # mshr miss rate for overall accesses
system.cpu.dcache.overall_mshr_miss_rate::.cpu.dcache.prefetcher          inf                       # mshr miss rate for overall accesses
system.cpu.dcache.overall_mshr_miss_rate::total     0.023768                       # mshr miss rate for overall accesses
system.cpu.dcache.demand_avg_mshr_miss_latency::.cpu.data 45927.852137                       # average overall mshr miss latency
system.cpu.dcache.demand_avg_mshr_miss_latency::total 45927.852137                       # average overall mshr miss latency
system.cpu.dcache.overall_avg_mshr_miss_latency::.cpu.data 45927.852137                       # average overall mshr miss latency
system.cpu.dcache.overall_avg_mshr_miss_latency::.cpu.dcache.prefetcher 57263.448490                       # average overall mshr miss latency
system.cpu.dcache.overall_avg_mshr_miss_latency::total 48829.288697                       # average overall mshr miss latency
system.cpu.dcache.replacements                  15928                       # number of replacements
system.cpu.dcache.ReadReq_hits::.cpu.data       504931                       # number of ReadReq hits
system.cpu.dcache.ReadReq_hits::total          504931                       # number of ReadReq hits
system.cpu.dcache.ReadReq_misses::.cpu.data        32847                       # number of ReadReq misses
system.cpu.dcache.ReadReq_misses::total         32847                       # number of ReadReq misses
system.cpu.dcache.ReadReq_miss_latency::.cpu.data   1586284800                       # number of ReadReq miss cycles
system.cpu.dcache.ReadReq_miss_latency::total   1586284800                       # number of ReadReq miss cycles
system.cpu.dcache.ReadReq_accesses::.cpu.data       537778                       # number of ReadReq accesses(hits+misses)
system.cpu.dcache.ReadReq_accesses::total       537778                       # number of ReadReq accesses(hits+misses)
system.cpu.dcache.ReadReq_miss_rate::.cpu.data     0.061079                       # miss rate for ReadReq accesses
system.cpu.dcache.ReadReq_miss_rate::total     0.061079                       # miss rate for ReadReq accesses
system.cpu.dcache.ReadReq_avg_miss_latency::.cpu.data 48293.140926                       # average ReadReq miss latency
system.cpu.dcache.ReadReq_avg_miss_latency::total 48293.140926                       # average ReadReq miss latency
system.cpu.dcache.ReadReq_mshr_hits::.cpu.data        22323                       # number of ReadReq MSHR hits
system.cpu.dcache.ReadReq_mshr_hits::total        22323                       # number of ReadReq MSHR hits
system.cpu.dcache.ReadReq_mshr_misses::.cpu.data        10524                       # number of ReadReq MSHR misses
system.cpu.dcache.ReadReq_mshr_misses::total        10524                       # number of ReadReq MSHR misses
system.cpu.dcache.ReadReq_mshr_miss_latency::.cpu.data    478130800                       # number of ReadReq MSHR miss cycles
system.cpu.dcache.ReadReq_mshr_miss_latency::total    478130800                       # number of ReadReq MSHR miss cycles
system.cpu.dcache.ReadReq_mshr_miss_rate::.cpu.data     0.019569                       # mshr miss rate for ReadReq accesses
system.cpu.dcache.ReadReq_mshr_miss_rate::total     0.019569                       # mshr miss rate for ReadReq accesses
system.cpu.dcache.ReadReq_avg_mshr_miss_latency::.cpu.data 45432.421133                       # average ReadReq mshr miss latency
system.cpu.dcache.ReadReq_avg_mshr_miss_latency::total 45432.421133                       # average ReadReq mshr miss latency
system.cpu.dcache.WriteReq_hits::.cpu.data       173324                       # number of WriteReq hits
system.cpu.dcache.WriteReq_hits::total         173324                       # number of WriteReq hits
system.cpu.dcache.WriteReq_misses::.cpu.data         2128                       # number of WriteReq misses
system.cpu.dcache.WriteReq_misses::total         2128                       # number of WriteReq misses
system.cpu.dcache.WriteReq_miss_latency::.cpu.data    104293599                       # number of WriteReq miss cycles
system.cpu.dcache.WriteReq_miss_latency::total    104293599                       # number of WriteReq miss cycles
system.cpu.dcache.WriteReq_accesses::.cpu.data       175452                       # number of WriteReq accesses(hits+misses)
system.cpu.dcache.WriteReq_accesses::total       175452                       # number of WriteReq accesses(hits+misses)
system.cpu.dcache.WriteReq_miss_rate::.cpu.data     0.012129                       # miss rate for WriteReq accesses
system.cpu.dcache.WriteReq_miss_rate::total     0.012129                       # miss rate for WriteReq accesses
system.cpu.dcache.WriteReq_avg_miss_latency::.cpu.data 49010.149906                       # average WriteReq miss latency
system.cpu.dcache.WriteReq_avg_miss_latency::total 49010.149906                       # average WriteReq miss latency
system.cpu.dcache.WriteReq_mshr_hits::.cpu.data           39                       # number of WriteReq MSHR hits
system.cpu.dcache.WriteReq_mshr_hits::total           39                       # number of WriteReq MSHR hits
[...]
system.l2cache.demand_mshr_miss_rate::.cpu.data     0.500000                       # mshr miss rate for demand accesses
system.l2cache.demand_mshr_miss_rate::.cpu.dcache.prefetcher     0.816327                       # mshr miss rate for demand accesses
system.l2cache.demand_mshr_miss_rate::total     0.536313                       # mshr miss rate for demand accesses
system.l2cache.overall_mshr_miss_rate::.cpu.inst     0.523810                       # mshr miss rate for overall accesses
system.l2cache.overall_mshr_miss_rate::.cpu.data     0.500000                       # mshr miss rate for overall accesses
system.l2cache.overall_mshr_miss_rate::.cpu.dcache.prefetcher     0.816327                       # mshr miss rate for overall accesses
system.l2cache.overall_mshr_miss_rate::.l2cache.prefetcher          inf                       # mshr miss rate for overall accesses
system.l2cache.overall_mshr_miss_rate::total     0.539106                       # mshr miss rate for overall accesses
system.l2cache.demand_avg_mshr_miss_latency::.cpu.inst 61295.238095                       # average overall mshr miss latency
system.l2cache.demand_avg_mshr_miss_latency::.cpu.data 60339.823009                       # average overall mshr miss latency
system.l2cache.demand_avg_mshr_miss_latency::.cpu.dcache.prefetcher 58858.950000                       # average overall mshr miss latency
system.l2cache.demand_avg_mshr_miss_latency::total 60760.307292                       # average overall mshr miss latency
system.l2cache.overall_avg_mshr_miss_latency::.cpu.inst 61295.238095                       # average overall mshr miss latency
system.l2cache.overall_avg_mshr_miss_latency::.cpu.data 60339.823009                       # average overall mshr miss latency
system.l2cache.overall_avg_mshr_miss_latency::.cpu.dcache.prefetcher 58858.950000                       # average overall mshr miss latency
system.l2cache.overall_avg_mshr_miss_latency::.l2cache.prefetcher 64998.500000                       # average overall mshr miss latency
system.l2cache.overall_avg_mshr_miss_latency::total 60782.266839                       # average overall mshr miss latency
system.l2cache.replacements                       395                       # number of replacements
system.l2cache.WritebackDirty_hits::.writebacks           81                       # number of WritebackDirty hits
system.l2cache.WritebackDirty_hits::total           81                       # number of WritebackDirty hits
system.l2cache.WritebackDirty_accesses::.writebacks           81                       # number of WritebackDirty accesses(hits+misses)
system.l2cache.WritebackDirty_accesses::total           81                       # number of WritebackDirty accesses(hits+misses)
system.l2cache.CleanEvict_mshr_misses::.writebacks            9                       # number of CleanEvict MSHR misses
system.l2cache.CleanEvict_mshr_misses::total            9                       # number of CleanEvict MSHR misses
system.l2cache.CleanEvict_mshr_miss_rate::.writebacks          inf                       # mshr miss rate for CleanEvict accesses
system.l2cache.CleanEvict_mshr_miss_rate::total          inf                       # mshr miss rate for CleanEvict accesses
system.l2cache.HardPFReq_mshr_misses::.l2cache.prefetcher            2                       # number of HardPFReq MSHR misses
system.l2cache.HardPFReq_mshr_misses::total            2                       # number of HardPFReq MSHR misses
system.l2cache.HardPFReq_mshr_miss_latency::.l2cache.prefetcher       129997                       # number of HardPFReq MSHR miss cycles
system.l2cache.HardPFReq_mshr_miss_latency::total       129997                       # number of HardPFReq MSHR miss cycles
system.l2cache.HardPFReq_mshr_miss_rate::.l2cache.prefetcher          inf                       # mshr miss rate for HardPFReq accesses
system.l2cache.HardPFReq_mshr_miss_rate::total          inf                       # mshr miss rate for HardPFReq accesses
system.l2cache.HardPFReq_avg_mshr_miss_latency::.l2cache.prefetcher 64998.500000                       # average HardPFReq mshr miss latency
system.l2cache.HardPFReq_avg_mshr_miss_latency::total 64998.500000                       # average HardPFReq mshr miss latency
system.l2cache.ReadExReq_hits::.cpu.data            4                       # number of ReadExReq hits
system.l2cache.ReadExReq_hits::total                4                       # number of ReadExReq hits
system.l2cache.ReadExReq_misses::.cpu.data            6                       # number of ReadExReq misses
system.l2cache.ReadExReq_misses::total              6                       # number of ReadExReq misses
system.l2cache.ReadExReq_miss_latency::.cpu.data       408800                       # number of ReadExReq miss cycles
system.l2cache.ReadExReq_miss_latency::total       408800                       # number of ReadExReq miss cycles
system.l2cache.ReadExReq_accesses::.cpu.data           10                       # number of ReadExReq accesses(hits+misses)
system.l2cache.ReadExReq_accesses::total           10                       # number of ReadExReq accesses(hits+misses)
system.l2cache.ReadExReq_miss_rate::.cpu.data     0.600000                       # miss rate for ReadExReq accesses
system.l2cache.ReadExReq_miss_rate::total     0.600000                       # miss rate for ReadExReq accesses
system.l2cache.ReadExReq_avg_miss_latency::.cpu.data 68133.333333                       # average ReadExReq miss latency
system.l2cache.ReadExReq_avg_miss_latency::total 68133.333333                       # average ReadExReq miss latency
system.l2cache.ReadExReq_mshr_misses::.cpu.data            6                       # number of ReadExReq MSHR misses
system.l2cache.ReadExReq_mshr_misses::total            6                       # number of ReadExReq MSHR misses
system.l2cache.ReadExReq_mshr_miss_latency::.cpu.data       360800                       # number of ReadExReq MSHR miss cycles
system.l2cache.ReadExReq_mshr_miss_latency::total       360800                       # number of ReadExReq MSHR miss cycles
system.l2cache.ReadExReq_mshr_miss_rate::.cpu.data     0.600000                       # mshr miss rate for ReadExReq accesses
system.l2cache.ReadExReq_mshr_miss_rate::total     0.600000                       # mshr miss rate for ReadExReq accesses
system.l2cache.ReadExReq_avg_mshr_miss_latency::.cpu.data 60133.333333                       # average ReadExReq mshr miss latency
system.l2cache.ReadExReq_avg_mshr_miss_latency::total 60133.333333                       # average ReadExReq mshr miss latency
system.l2cache.ReadSharedReq_hits::.cpu.inst          210                       # number of ReadSharedReq hits
system.l2cache.ReadSharedReq_hits::.cpu.data          109                       # number of ReadSharedReq hits
system.l2cache.ReadSharedReq_hits::.cpu.dcache.prefetcher            8                       # number of ReadSharedReq hits
system.l2cache.ReadSharedReq_hits::total          327                       # number of ReadSharedReq hits
system.l2cache.ReadSharedReq_misses::.cpu.inst          231                       # number of ReadSharedReq misses
system.l2cache.ReadSharedReq_misses::.cpu.data          107                       # number of ReadSharedReq misses
system.l2cache.ReadSharedReq_misses::.cpu.dcache.prefetcher           41                       # number of ReadSharedReq misses
system.l2cache.ReadSharedReq_misses::total          379                       # number of ReadSharedReq misses
system.l2cache.ReadSharedReq_miss_latency::.cpu.inst     16007200                       # number of ReadSharedReq miss cycles
system.l2cache.ReadSharedReq_miss_latency::.cpu.data      7313600                       # number of ReadSharedReq miss cycles
system.l2cache.ReadSharedReq_miss_latency::.cpu.dcache.prefetcher      2685957                       # number of ReadSharedReq miss cycles
system.l2cache.ReadSharedReq_miss_latency::total     26006757                       # number of ReadSharedReq miss cycles
system.l2cache.ReadSharedReq_accesses::.cpu.inst          441                       # number of ReadSharedReq accesses(hits+misses)
system.l2cache.ReadSharedReq_accesses::.cpu.data          216                       # number of ReadSharedReq accesses(hits+misses)
system.l2cache.ReadSharedReq_accesses::.cpu.dcache.prefetcher           49                       # number of ReadSharedReq accesses(hits+misses)
system.l2cache.ReadSharedReq_accesses::total          706                       # number of ReadSharedReq accesses(hits+misses)
system.l2cache.ReadSharedReq_miss_rate::.cpu.inst     0.523810                       # miss rate for ReadSharedReq accesses
system.l2cache.ReadSharedReq_miss_rate::.cpu.data     0.495370                       # miss rate for ReadSharedReq accesses
system.l2cache.ReadSharedReq_miss_rate::.cpu.dcache.prefetcher     0.836735                       # miss rate for ReadSharedReq accesses
system.l2cache.ReadSharedReq_miss_rate::total     0.536827                       # miss rate for ReadSharedReq accesses
system.l2cache.ReadSharedReq_avg_miss_latency::.cpu.inst 69295.238095                       # average ReadSharedReq miss latency
system.l2cache.ReadSharedReq_avg_miss_latency::.cpu.data 68351.401869                       # average ReadSharedReq miss latency
system.l2cache.ReadSharedReq_avg_miss_latency::.cpu.dcache.prefetcher 65511.146341                       # average ReadSharedReq miss latency
system.l2cache.ReadSharedReq_avg_miss_latency::total 68619.411609                       # average ReadSharedReq miss latency
system.l2cache.ReadSharedReq_mshr_hits::.cpu.dcache.prefetcher            1                       # number of ReadSharedReq MSHR hits
system.l2cache.ReadSharedReq_mshr_hits::total            1                       # number of ReadSharedReq MSHR hits
system.l2cache.ReadSharedReq_mshr_misses::.cpu.inst          231                       # number of ReadSharedReq MSHR misses
system.l2cache.ReadSharedReq_mshr_misses::.cpu.data          107                       # number of ReadSharedReq MSHR misses
system.l2cache.ReadSharedReq_mshr_misses::.cpu.dcache.prefetcher           40                       # number of ReadSharedReq MSHR misses
system.l2cache.ReadSharedReq_mshr_misses::total          378                       # number of ReadSharedReq MSHR misses
system.l2cache.ReadSharedReq_mshr_miss_latency::.cpu.inst     14159200                       # number of ReadSharedReq MSHR miss cycles
system.l2cache.ReadSharedReq_mshr_miss_latency::.cpu.data      6457600                       # number of ReadSharedReq MSHR miss cycles
system.l2cache.ReadSharedReq_mshr_miss_latency::.cpu.dcache.prefetcher      2354358                       # number of ReadSharedReq MSHR miss cycles
system.l2cache.ReadSharedReq_mshr_miss_latency::total     22971158                       # number of ReadSharedReq MSHR miss cycles
system.l2cache.ReadSharedReq_mshr_miss_rate::.cpu.inst     0.523810                       # mshr miss rate for ReadSharedReq accesses
system.l2cache.ReadSharedReq_mshr_miss_rate::.cpu.data     0.495370                       # mshr miss rate for ReadSharedReq accesses
system.l2cache.ReadSharedReq_mshr_miss_rate::.cpu.dcache.prefetcher     0.816327                       # mshr miss rate for ReadSharedReq accesses
system.l2cache.ReadSharedReq_mshr_miss_rate::total     0.535411                       # mshr miss rate for ReadSharedReq accesses
system.l2cache.ReadSharedReq_avg_mshr_miss_latency::.cpu.inst 61295.238095                       # average ReadSharedReq mshr miss latency
system.l2cache.ReadSharedReq_avg_mshr_miss_latency::.cpu.data 60351.401869                       # average ReadSharedReq mshr miss latency
system.l2cache.ReadSharedReq_avg_mshr_miss_latency::.cpu.dcache.prefetcher 58858.950000                       # average ReadSharedReq mshr miss latency
system.l2cache.ReadSharedReq_avg_mshr_miss_latency::total 60770.259259                       # average ReadSharedReq mshr miss latency
system.l2cache.prefetcher.pwrStateResidencyTicks::UNDEFINED     27520800                       # Cumulative time (in ticks) in various power states
system.l2cache.tags.pwrStateResidencyTicks::UNDEFINED     27520800                       # Cumulative time (in ticks) in various power states
system.l2cache.tags.tagsinuse                    4096                       # Cycle average of tags in use
system.l2cache.tags.total_refs                  13974                       # Total number of references to valid blocks.
system.l2cache.tags.sampled_refs                 4491                       # Sample count of references to valid blocks.
system.l2cache.tags.avg_refs                 3.111556                       # Average number of references to valid blocks.
system.l2cache.tags.warmup_cycle                    0                       # Cycle when the warmup percentage was hit.
system.l2cache.tags.occ_blocks::.writebacks    42.370614                       # Average occupied blocks per requestor
system.l2cache.tags.occ_blocks::.cpu.inst  1144.387725                       # Average occupied blocks per requestor
system.l2cache.tags.occ_blocks::.cpu.data  1829.357982                       # Average occupied blocks per requestor
system.l2cache.tags.occ_blocks::.cpu.dcache.prefetcher   959.869101                       # Average occupied blocks per requestor
system.l2cache.tags.occ_blocks::.l2cache.prefetcher   120.014578                       # Average occupied blocks per requestor
system.l2cache.tags.occ_percent::.writebacks     0.010344                       # Average percentage of cache occupancy
system.l2cache.tags.occ_percent::.cpu.inst     0.279392                       # Average percentage of cache occupancy
system.l2cache.tags.occ_percent::.cpu.data     0.446621                       # Average percentage of cache occupancy
system.l2cache.tags.occ_percent::.cpu.dcache.prefetcher     0.234343                       # Average percentage of cache occupancy
system.l2cache.tags.occ_percent::.l2cache.prefetcher     0.029300                       # Average percentage of cache occupancy
system.l2cache.tags.occ_percent::total       1.000000                       # Average percentage of cache occupancy
system.l2cache.tags.occ_task_id_blocks::1022         1023                       # Occupied blocks per task id
system.l2cache.tags.occ_task_id_blocks::1024         3073                       # Occupied blocks per task id
system.l2cache.tags.age_task_id_blocks_1022::0           13                       # Occupied blocks per task id
system.l2cache.tags.age_task_id_blocks_1022::1          106                       # Occupied blocks per task id
system.l2cache.tags.age_task_id_blocks_1022::2          902                       # Occupied blocks per task id
system.l2cache.tags.age_task_id_blocks_1022::3            2                       # Occupied blocks per task id
system.l2cache.tags.age_task_id_blocks_1024::0          170                       # Occupied blocks per task id
system.l2cache.tags.age_task_id_blocks_1024::1          930                       # Occupied blocks per task id
system.l2cache.tags.age_task_id_blocks_1024::2         1933                       # Occupied blocks per task id
system.l2cache.tags.age_task_id_blocks_1024::3           40                       # Occupied blocks per task id
system.l2cache.tags.occ_task_id_percent::1022     0.249756                       # Percentage of cache occupancy per task id
system.l2cache.tags.occ_task_id_percent::1024     0.750244                       # Percentage of cache occupancy per task id
system.l2cache.tags.tag_accesses                11835                       # Number of tag accesses
system.l2cache.tags.data_accesses               11835                       # Number of data accesses
system.mem_ctrl.pwrStateResidencyTicks::UNDEFINED     27520800                       # Cumulative time (in ticks) in various power states
system.mem_ctrl.bytes_read::.cpu.inst           14784                       # Number of bytes read from this memory
system.mem_ctrl.bytes_read::.cpu.data            7232                       # Number of bytes read from this memory
system.mem_ctrl.bytes_read::.cpu.dcache.prefetcher         2560                       # Number of bytes read from this memory
system.mem_ctrl.bytes_read::.l2cache.prefetcher          128                       # Number of bytes read from this memory
system.mem_ctrl.bytes_read::total               24704                       # Number of bytes read from this memory
system.mem_ctrl.bytes_inst_read::.cpu.inst        14784                       # Number of instructions bytes read from this memory
system.mem_ctrl.bytes_inst_read::total          14784                       # Number of instructions bytes read from this memory
system.mem_ctrl.bytes_written::.writebacks         1280                       # Number of bytes written to this memory
system.mem_ctrl.bytes_written::total             1280                       # Number of bytes written to this memory
system.mem_ctrl.num_reads::.cpu.inst              231                       # Number of read requests responded to by this memory
system.mem_ctrl.num_reads::.cpu.data              113                       # Number of read requests responded to by this memory
system.mem_ctrl.num_reads::.cpu.dcache.prefetcher           40                       # Number of read requests responded to by this memory
system.mem_ctrl.num_reads::.l2cache.prefetcher            2                       # Number of read requests responded to by this memory
system.mem_ctrl.num_reads::total                  386                       # Number of read requests responded to by this memory
system.mem_ctrl.num_writes::.writebacks            20                       # Number of write requests responded to by this memory
system.mem_ctrl.num_writes::total                  20                       # Number of write requests responded to by this memory
system.mem_ctrl.bw_read::.cpu.inst          537193686                       # Total read bandwidth from this memory (bytes/s)
system.mem_ctrl.bw_read::.cpu.data          262783059                       # Total read bandwidth from this memory (bytes/s)
system.mem_ctrl.bw_read::.cpu.dcache.prefetcher     93020552                       # Total read bandwidth from this memory (bytes/s)
system.mem_ctrl.bw_read::.l2cache.prefetcher      4651028                       # Total read bandwidth from this memory (bytes/s)
system.mem_ctrl.bw_read::total              897648324                       # Total read bandwidth from this memory (bytes/s)
system.mem_ctrl.bw_inst_read::.cpu.inst     537193686                       # Instruction read bandwidth from this memory (bytes/s)
system.mem_ctrl.bw_inst_read::total         537193686                       # Instruction read bandwidth from this memory (bytes/s)
system.mem_ctrl.bw_write::.writebacks        46510276                       # Write bandwidth from this memory (bytes/s)
system.mem_ctrl.bw_write::total              46510276                       # Write bandwidth from this memory (bytes/s)
system.mem_ctrl.bw_total::.writebacks        46510276                       # Total bandwidth to/from this memory (bytes/s)
system.mem_ctrl.bw_total::.cpu.inst         537193686                       # Total bandwidth to/from this memory (bytes/s)
system.mem_ctrl.bw_total::.cpu.data         262783059                       # Total bandwidth to/from this memory (bytes/s)
system.mem_ctrl.bw_total::.cpu.dcache.prefetcher     93020552                       # Total bandwidth to/from this memory (bytes/s)
system.mem_ctrl.bw_total::.l2cache.prefetcher      4651028                       # Total bandwidth to/from this memory (bytes/s)
system.mem_ctrl.bw_total::total             944158600                       # Total bandwidth to/from this memory (bytes/s)

---------- End Simulation Statistics   ----------
