
---------- Begin Simulation Statistics ----------
final_tick                                 4781744400                       # Number of ticks from beginning of simulation (restored from checkpoints and never reset)
host_inst_rate                                 108732                       # Simulator instruction rate (inst/s)
host_mem_usage                                4407960                       # Number of bytes of host memory used
host_op_rate                                   191116                       # Simulator op (including micro ops) rate (op/s)
host_seconds                                    46.04                       # Real time elapsed on the host
host_tick_rate                              103859237                       # Simulator tick rate (ticks/s)
sim_freq                                 1000000000000                       # Frequency of simulated ticks
sim_insts                                     5006058                       # Number of instructions simulated
sim_ops                                       8799120                       # Number of ops (including micro ops) simulated
sim_seconds                                  0.004782                       # Number of seconds simulated
sim_ticks                                  4781744400                       # Number of ticks simulated
system.cpu.branchPred.BTBCorrect                    0                       # Number of correct BTB predictions (this stat may not work properly.
system.cpu.branchPred.BTBHitPct              0.000000                       # BTB Hit Percentage
system.cpu.branchPred.BTBHits                       0                       # Number of BTB hits
system.cpu.branchPred.BTBLookups               850017                       # Number of BTB lookups
system.cpu.branchPred.RASInCorrect                 70                       # Number of incorrect RAS predictions.
system.cpu.branchPred.condIncorrect             28436                       # Number of conditional branches incorrect
system.cpu.branchPred.condPredicted            874691                       # Number of conditional branches predicted
system.cpu.branchPred.indirectHits             633932                       # Number of indirect target hits.
system.cpu.branchPred.indirectLookups          850017                       # Number of indirect predictor lookups.
system.cpu.branchPred.indirectMisses           216085                       # Number of indirect misses.
system.cpu.branchPred.lookups                  913475                       # Number of BP lookups
system.cpu.branchPred.usedRAS                   19001                       # Number of times the RAS was used to get a target.
system.cpu.branchPredindirectMispredicted        13488                       # Number of mispredicted indirect branches.
system.cpu.cc_regfile_reads                   4301955                       # number of cc regfile reads
system.cpu.cc_regfile_writes                  4787525                       # number of cc regfile writes
system.cpu.commit.amos                              0                       # Number of atomic instructions committed
system.cpu.commit.branchMispredicts             28526                       # The number of times a branch was mispredicted
system.cpu.commit.branches                     630426                       # Number of branches committed
system.cpu.commit.bw_lim_events               1498733                       # number cycles where commit BW limit reached
system.cpu.commit.commitNonSpecStalls            1770                       # The number of times commit has been forced to stall to communicate backwards
system.cpu.commit.commitSquashedInsts         3090757                       # The number of squashed insts skipped by commit
system.cpu.commit.committedInsts              5006058                       # Number of instructions committed
system.cpu.commit.committedOps                8799120                       # Number of ops (including micro ops) committed
system.cpu.commit.committed_per_cycle::samples     10958725                       # Number of insts commited each cycle
system.cpu.commit.committed_per_cycle::mean     0.802933                       # Number of insts commited each cycle
system.cpu.commit.committed_per_cycle::stdev     1.437297                       # Number of insts commited each cycle
system.cpu.commit.committed_per_cycle::underflows            0      0.00%      0.00% # Number of insts commited each cycle
system.cpu.commit.committed_per_cycle::0      7709522     70.35%     70.35% # Number of insts commited each cycle
system.cpu.commit.committed_per_cycle::1      1103020     10.07%     80.42% # Number of insts commited each cycle
system.cpu.commit.committed_per_cycle::2       241182      2.20%     82.62% # Number of insts commited each cycle
system.cpu.commit.committed_per_cycle::3       406268      3.71%     86.32% # Number of insts commited each cycle
system.cpu.commit.committed_per_cycle::4      1498733     13.68%    100.00% # Number of insts commited each cycle
system.cpu.commit.committed_per_cycle::overflows            0      0.00%    100.00% # Number of insts commited each cycle
system.cpu.commit.committed_per_cycle::min_value            0                       # Number of insts commited each cycle
system.cpu.commit.committed_per_cycle::max_value            4                       # Number of insts commited each cycle
system.cpu.commit.committed_per_cycle::total     10958725                       # Number of insts commited each cycle
system.cpu.commit.fp_insts                     259573                       # Number of committed floating point instructions.
system.cpu.commit.function_calls                12752                       # Number of function calls committed.
system.cpu.commit.int_insts                   8742583                       # Number of committed integer instructions.
system.cpu.commit.loads                       1370325                       # Number of loads committed
system.cpu.commit.membars                          17                       # Number of memory barriers committed
system.cpu.commit.op_class_0::No_OpClass        20441      0.23%      0.23% # Class of committed instruction
system.cpu.commit.op_class_0::IntAlu          6276980     71.34%     71.57% # Class of committed instruction
system.cpu.commit.op_class_0::IntMult             832      0.01%     71.58% # Class of committed instruction
system.cpu.commit.op_class_0::IntDiv            36808      0.42%     72.00% # Class of committed instruction
system.cpu.commit.op_class_0::FloatAdd           2897      0.03%     72.03% # Class of committed instruction
system.cpu.commit.op_class_0::FloatCmp              0      0.00%     72.03% # Class of committed instruction
system.cpu.commit.op_class_0::FloatCvt           1280      0.01%     72.04% # Class of committed instruction
system.cpu.commit.op_class_0::FloatMult             0      0.00%     72.04% # Class of committed instruction
system.cpu.commit.op_class_0::FloatMultAcc            0      0.00%     72.04% # Class of committed instruction
system.cpu.commit.op_class_0::FloatDiv              0      0.00%     72.04% # Class of committed instruction
system.cpu.commit.op_class_0::FloatMisc             0      0.00%     72.04% # Class of committed instruction
system.cpu.commit.op_class_0::FloatSqrt             0      0.00%     72.04% # Class of committed instruction
system.cpu.commit.op_class_0::SimdAdd            6294      0.07%     72.12% # Class of committed instruction
system.cpu.commit.op_class_0::SimdAddAcc            0      0.00%     72.12% # Class of committed instruction
system.cpu.commit.op_class_0::SimdAlu           11376      0.13%     72.24% # Class of committed instruction
system.cpu.commit.op_class_0::SimdCmp               0      0.00%     72.24% # Class of committed instruction
system.cpu.commit.op_class_0::SimdCvt           12314      0.14%     72.38% # Class of committed instruction
system.cpu.commit.op_class_0::SimdMisc           6631      0.08%     72.46% # Class of committed instruction
system.cpu.commit.op_class_0::SimdMult              0      0.00%     72.46% # Class of committed instruction
system.cpu.commit.op_class_0::SimdMultAcc            0      0.00%     72.46% # Class of committed instruction
system.cpu.commit.op_class_0::SimdShift          1371      0.02%     72.48% # Class of committed instruction
system.cpu.commit.op_class_0::SimdShiftAcc            0      0.00%     72.48% # Class of committed instruction
system.cpu.commit.op_class_0::SimdDiv               0      0.00%     72.48% # Class of committed instruction
system.cpu.commit.op_class_0::SimdSqrt              0      0.00%     72.48% # Class of committed instruction
system.cpu.commit.op_class_0::SimdFloatAdd            0      0.00%     72.48% # Class of committed instruction
system.cpu.commit.op_class_0::SimdFloatAlu            0      0.00%     72.48% # Class of committed instruction
system.cpu.commit.op_class_0::SimdFloatCmp            0      0.00%     72.48% # Class of committed instruction
system.cpu.commit.op_class_0::SimdFloatCvt            0      0.00%     72.48% # Class of committed instruction
system.cpu.commit.op_class_0::SimdFloatDiv            0      0.00%     72.48% # Class of committed instruction
system.cpu.commit.op_class_0::SimdFloatMisc            0      0.00%     72.48% # Class of committed instruction
system.cpu.commit.op_class_0::SimdFloatMult            0      0.00%     72.48% # Class of committed instruction
system.cpu.commit.op_class_0::SimdFloatMultAcc            0      0.00%     72.48% # Class of committed instruction
system.cpu.commit.op_class_0::SimdFloatSqrt            0      0.00%     72.48% # Class of committed instruction
system.cpu.commit.op_class_0::SimdReduceAdd            0      0.00%     72.48% # Class of committed instruction
system.cpu.commit.op_class_0::SimdReduceAlu            0      0.00%     72.48% # Class of committed instruction
system.cpu.commit.op_class_0::SimdReduceCmp            0      0.00%     72.48% # Class of committed instruction
system.cpu.commit.op_class_0::SimdFloatReduceAdd            0      0.00%     72.48% # Class of committed instruction
system.cpu.commit.op_class_0::SimdFloatReduceCmp            0      0.00%     72.48% # Class of committed instruction
system.cpu.commit.op_class_0::SimdAes               0      0.00%     72.48% # Class of committed instruction
system.cpu.commit.op_class_0::SimdAesMix            0      0.00%     72.48% # Class of committed instruction
system.cpu.commit.op_class_0::SimdSha1Hash            0      0.00%     72.48% # Class of committed instruction
system.cpu.commit.op_class_0::SimdSha1Hash2            0      0.00%     72.48% # Class of committed instruction
system.cpu.commit.op_class_0::SimdSha256Hash            0      0.00%     72.48% # Class of committed instruction
system.cpu.commit.op_class_0::SimdSha256Hash2            0      0.00%     72.48% # Class of committed instruction
system.cpu.commit.op_class_0::SimdShaSigma2            0      0.00%     72.48% # Class of committed instruction
system.cpu.commit.op_class_0::SimdShaSigma3            0      0.00%     72.48% # Class of committed instruction
system.cpu.commit.op_class_0::SimdPredAlu            0      0.00%     72.48% # Class of committed instruction
system.cpu.commit.op_class_0::MemRead         1258435     14.30%     86.78% # Class of committed instruction
system.cpu.commit.op_class_0::MemWrite         946908     10.76%     97.54% # Class of committed instruction
system.cpu.commit.op_class_0::FloatMemRead       111890      1.27%     98.81% # Class of committed instruction
system.cpu.commit.op_class_0::FloatMemWrite       104663      1.19%    100.00% # Class of committed instruction
system.cpu.commit.op_class_0::IprAccess             0      0.00%    100.00% # Class of committed instruction
system.cpu.commit.op_class_0::InstPrefetch            0      0.00%    100.00% # Class of committed instruction
system.cpu.commit.op_class_0::total           8799120                       # Class of committed instruction
system.cpu.commit.refs                        2421896                       # Number of memory references committed
system.cpu.commit.swp_count                         0                       # Number of s/w prefetches committed
system.cpu.commit.vec_insts                         0                       # Number of committed Vector instructions.
system.cpu.committedInsts                     5006058                       # Number of Instructions Simulated
system.cpu.committedOps                       8799120                       # Number of Ops (including micro ops) Simulated
system.cpu.cpi                               2.387979                       # CPI: Cycles Per Instruction
system.cpu.cpi_total                         2.387979                       # CPI: Total CPI of All Threads
system.cpu.dcache.prefetcher.num_hwpf_issued        59545                       # number of hwpf issued
system.cpu.dcache.prefetcher.pfBufferHit       143073                       # number of redundant prefetches already in prefetch queue
system.cpu.dcache.prefetcher.pfIdentified       220310                       # number of prefetch candidates identified
system.cpu.dcache.prefetcher.pfInCache              0                       # number of redundant prefetches already in cache/mshr dropped
system.cpu.dcache.prefetcher.pfRemovedFull            0                       # number of prefetches dropped due to prefetch queue size
system.cpu.dcache.prefetcher.pfSpanPage         21118                       # number of prefetches that crossed the page
system.cpu.decode.BlockedCycles               7333015                       # Number of cycles decode is blocked
system.cpu.decode.DecodedInsts               14222560                       # Number of instructions handled by decode
system.cpu.decode.IdleCycles                   722488                       # Number of cycles decode is idle
system.cpu.decode.RunCycles                   3071376                       # Number of cycles decode is running
system.cpu.decode.SquashCycles                  72399                       # Number of cycles decode is squashing
system.cpu.decode.UnblockCycles                580900                       # Number of cycles decode is unblocking
system.cpu.dtb.rdAccesses                     2366587                       # TLB accesses on read requests
system.cpu.dtb.rdMisses                          2596                       # TLB misses on read requests
system.cpu.dtb.wrAccesses                     2297777                       # TLB accesses on write requests
system.cpu.dtb.wrMisses                          1041                       # TLB misses on write requests
system.cpu.fetch.Branches                      913475                       # Number of branches that fetch encountered
system.cpu.fetch.CacheLines                    686708                       # Number of cache lines fetched
system.cpu.fetch.Cycles                      10920798                       # Number of cycles fetch has run and was not squashing or blocked
system.cpu.fetch.IcacheSquashes                  7274                       # Number of outstanding Icache misses that were squashed
system.cpu.fetch.IcacheWaitRetryStallCycles           11                       # Number of stall cycles due to full MSHR
system.cpu.fetch.Insts                        7674589                       # Number of instructions fetch has processed
system.cpu.fetch.MiscStallCycles                  115                       # Number of cycles fetch has spent waiting on interrupts, or bad addresses, or out of MSHRs
system.cpu.fetch.PendingQuiesceStallCycles           11                       # Number of stall cycles due to pending quiesce instructions
system.cpu.fetch.PendingTrapStallCycles           611                       # Number of stall cycles due to pending traps
system.cpu.fetch.SquashCycles                  144798                       # Number of cycles fetch has spent squashing
system.cpu.fetch.branchRate                  0.076414                       # Number of branch fetches per cycle
system.cpu.fetch.icacheStallCycles             786233                       # Number of cycles fetch is stalled on an Icache miss
system.cpu.fetch.predictedBranches             652933                       # Number of branches that fetch has predicted taken
system.cpu.fetch.rate                        0.641991                       # Number of inst fetches per cycle
system.cpu.fetch.rateDist::samples           11780178                       # Number of instructions fetched each cycle (Total)
system.cpu.fetch.rateDist::mean              1.262072                       # Number of instructions fetched each cycle (Total)
system.cpu.fetch.rateDist::stdev             1.792021                       # Number of instructions fetched each cycle (Total)
system.cpu.fetch.rateDist::underflows               0      0.00%      0.00% # Number of instructions fetched each cycle (Total)
system.cpu.fetch.rateDist::0                  7674683     65.15%     65.15% # Number of instructions fetched each cycle (Total)
system.cpu.fetch.rateDist::1                   213568      1.81%     66.96% # Number of instructions fetched each cycle (Total)
system.cpu.fetch.rateDist::2                   253214      2.15%     69.11% # Number of instructions fetched each cycle (Total)
system.cpu.fetch.rateDist::3                   407417      3.46%     72.57% # Number of instructions fetched each cycle (Total)
system.cpu.fetch.rateDist::4                  3231296     27.43%    100.00% # Number of instructions fetched each cycle (Total)
system.cpu.fetch.rateDist::overflows                0      0.00%    100.00% # Number of instructions fetched each cycle (Total)
system.cpu.fetch.rateDist::min_value                0                       # Number of instructions fetched each cycle (Total)
system.cpu.fetch.rateDist::max_value                4                       # Number of instructions fetched each cycle (Total)
system.cpu.fetch.rateDist::total             11780178                       # Number of instructions fetched each cycle (Total)
system.cpu.fp_regfile_reads                   1030913                       # number of floating regfile reads
system.cpu.fp_regfile_writes                   817213                       # number of floating regfile writes
system.cpu.fuPool.fu_ticks_busy::IntALU(0)    526472000                       # Total ticks fu was busy
system.cpu.fuPool.fu_ticks_busy::IntALU(1)    526472000                       # Total ticks fu was busy
system.cpu.fuPool.fu_ticks_busy::IntALU(2)    526472000                       # Total ticks fu was busy
system.cpu.fuPool.fu_ticks_busy::IntALU(3)    526472000                       # Total ticks fu was busy
system.cpu.fuPool.fu_ticks_busy::IntALU(4)    526471600                       # Total ticks fu was busy
system.cpu.fuPool.fu_ticks_busy::IntALU(5)    526471600                       # Total ticks fu was busy
system.cpu.fuPool.fu_ticks_busy::IntMultDiv(0)      8302400                       # Total ticks fu was busy
system.cpu.fuPool.fu_ticks_busy::IntMultDiv(1)      8302400                       # Total ticks fu was busy
system.cpu.fuPool.fu_ticks_busy::FP_ALU(0)       581600                       # Total ticks fu was busy
system.cpu.fuPool.fu_ticks_busy::FP_ALU(1)       581600                       # Total ticks fu was busy
system.cpu.fuPool.fu_ticks_busy::FP_ALU(2)       581600                       # Total ticks fu was busy
system.cpu.fuPool.fu_ticks_busy::FP_ALU(3)       581200                       # Total ticks fu was busy
system.cpu.fuPool.fu_ticks_busy::FP_MultDiv(0)            0                       # Total ticks fu was busy
system.cpu.fuPool.fu_ticks_busy::FP_MultDiv(1)            0                       # Total ticks fu was busy
system.cpu.fuPool.fu_ticks_busy::SIMD_Unit(0)      4457600                       # Total ticks fu was busy
system.cpu.fuPool.fu_ticks_busy::SIMD_Unit(1)      4614800                       # Total ticks fu was busy
system.cpu.fuPool.fu_ticks_busy::SIMD_Unit(2)      4600800                       # Total ticks fu was busy
system.cpu.fuPool.fu_ticks_busy::SIMD_Unit(3)      4444800                       # Total ticks fu was busy
system.cpu.fuPool.fu_ticks_busy::PredALU(0)            0                       # Total ticks fu was busy
system.cpu.fuPool.fu_ticks_busy::RdWrPort(0)    472648400                       # Total ticks fu was busy
system.cpu.fuPool.fu_ticks_busy::RdWrPort(1)    473669600                       # Total ticks fu was busy
system.cpu.fuPool.fu_ticks_busy::RdWrPort(2)    473239200                       # Total ticks fu was busy
system.cpu.fuPool.fu_ticks_busy::RdWrPort(3)    472574000                       # Total ticks fu was busy
system.cpu.fuPool.fu_ticks_busy::IprPort(0)            0                       # Total ticks fu was busy
system.cpu.fuPool.fu_ticks_busy::total     5088011200                       # Total ticks fu was busy
system.cpu.icache.prefetcher.num_hwpf_issued            0                       # number of hwpf issued
system.cpu.icache.prefetcher.pfBufferHit            0                       # number of redundant prefetches already in prefetch queue
system.cpu.icache.prefetcher.pfIdentified            0                       # number of prefetch candidates identified
system.cpu.icache.prefetcher.pfInCache              0                       # number of redundant prefetches already in cache/mshr dropped
system.cpu.icache.prefetcher.pfRemovedFull            0                       # number of prefetches dropped due to prefetch queue size
system.cpu.icache.prefetcher.pfSpanPage             0                       # number of prefetches that crossed the page
system.cpu.idleCycles                          174184                       # Total number of cycles that the CPU has spent unscheduled due to idling
system.cpu.iew.branchMispredicts                36781                       # Number of branch mispredicts detected at execute
system.cpu.iew.exec_branches                   775544                       # Number of branches executed
system.cpu.iew.exec_nop                             0                       # number of nop insts executed
system.cpu.iew.exec_rate                     1.090874                       # Inst execution rate
system.cpu.iew.exec_refs                      4666975                       # number of memory reference insts executed
system.cpu.iew.exec_stores                    2297769                       # Number of stores executed
system.cpu.iew.exec_swp                             0                       # number of swp insts executed
system.cpu.iew.iewBlockCycles                 1426436                       # Number of cycles IEW is blocking
system.cpu.iew.iewDispLoadInsts               2443452                       # Number of dispatched load instructions
system.cpu.iew.iewDispNonSpecInsts               1496                       # Number of dispatched non-speculative instructions
system.cpu.iew.iewDispSquashedInsts              1116                       # Number of squashed instructions skipped by dispatch
system.cpu.iew.iewDispStoreInsts              2344277                       # Number of dispatched store instructions
system.cpu.iew.iewDispatchedInsts            13544613                       # Number of instructions dispatched to IQ
system.cpu.iew.iewExecLoadInsts               2369206                       # Number of load instructions executed
system.cpu.iew.iewExecSquashedInsts            130004                       # Number of squashed instructions skipped in execute
system.cpu.iew.iewExecutedInsts              13040703                       # Number of executed instructions
system.cpu.iew.iewIQFullEvents                   4468                       # Number of times the IQ has become full, causing a stall
system.cpu.iew.iewIdleCycles                        0                       # Number of cycles IEW is idle
system.cpu.iew.iewLSQFullEvents                 80302                       # Number of times the LSQ has become full, causing a stall
system.cpu.iew.iewSquashCycles                  72399                       # Number of cycles IEW is squashing
system.cpu.iew.iewUnblockCycles                 85176                       # Number of cycles IEW is unblocking
system.cpu.iew.lsq.thread0.blockedLoads             0                       # Number of blocked loads due to partial load-store forwarding
system.cpu.iew.lsq.thread0.cacheBlocked           845                       # Number of times an access to memory failed due to the cache being blocked
system.cpu.iew.lsq.thread0.forwLoads            41781                       # Number of loads that had data forwarded from stores
system.cpu.iew.lsq.thread0.ignoredResponses          253                       # Number of memory responses ignored because the instruction is squashed
system.cpu.iew.lsq.thread0.invAddrLoads             0                       # Number of loads ignored due to an invalid address
system.cpu.iew.lsq.thread0.invAddrSwpfs             0                       # Number of software prefetches ignored due to an invalid address
system.cpu.iew.lsq.thread0.memOrderViolation          152                       # Number of memory ordering violations
system.cpu.iew.lsq.thread0.rescheduledLoads            1                       # Number of loads that were rescheduled
system.cpu.iew.lsq.thread0.squashedLoads      1073124                       # Number of loads squashed
system.cpu.iew.lsq.thread0.squashedStores      1292705                       # Number of stores squashed
system.cpu.iew.memOrderViolationEvents            152                       # Number of memory order violations
system.cpu.iew.predictedNotTakenIncorrect        22449                       # Number of branches that were predicted not taken incorrectly
system.cpu.iew.predictedTakenIncorrect          14332                       # Number of branches that were predicted taken incorrectly
system.cpu.iew.wb_consumers                  11601041                       # num instructions consuming a value
system.cpu.iew.wb_count                      12497369                       # cumulative count of insts written-back
system.cpu.iew.wb_fanout                     0.680570                       # average fanout of values written-back
system.cpu.iew.wb_producers                   7895324                       # num instructions producing a value
system.cpu.iew.wb_rate                       1.045423                       # insts written-back per cycle
system.cpu.iew.wb_sent                       12961643                       # cumulative count of insts sent to commit
system.cpu.int_regfile_reads                 20364128                       # number of integer regfile reads
system.cpu.int_regfile_writes                 8722198                       # number of integer regfile writes
system.cpu.ipc                               0.418764                       # IPC: Instructions Per Cycle
system.cpu.ipc_total                         0.418764                       # IPC: Total IPC of All Threads
system.cpu.iq.FU_type_0::No_OpClass            450679      3.42%      3.42% # Type of FU issued
system.cpu.iq.FU_type_0::IntAlu               7897078     59.96%     63.38% # Type of FU issued
system.cpu.iq.FU_type_0::IntMult                  858      0.01%     63.39% # Type of FU issued
system.cpu.iq.FU_type_0::IntDiv                 40654      0.31%     63.70% # Type of FU issued
system.cpu.iq.FU_type_0::FloatAdd                4479      0.03%     63.73% # Type of FU issued
system.cpu.iq.FU_type_0::FloatCmp                   0      0.00%     63.73% # Type of FU issued
system.cpu.iq.FU_type_0::FloatCvt                1336      0.01%     63.74% # Type of FU issued
system.cpu.iq.FU_type_0::FloatMult                  0      0.00%     63.74% # Type of FU issued
system.cpu.iq.FU_type_0::FloatMultAcc               0      0.00%     63.74% # Type of FU issued
system.cpu.iq.FU_type_0::FloatDiv                   0      0.00%     63.74% # Type of FU issued
system.cpu.iq.FU_type_0::FloatMisc                  0      0.00%     63.74% # Type of FU issued
system.cpu.iq.FU_type_0::FloatSqrt                  0      0.00%     63.74% # Type of FU issued
system.cpu.iq.FU_type_0::SimdAdd                 6871      0.05%     63.79% # Type of FU issued
system.cpu.iq.FU_type_0::SimdAddAcc                 0      0.00%     63.79% # Type of FU issued
system.cpu.iq.FU_type_0::SimdAlu                14821      0.11%     63.91% # Type of FU issued
system.cpu.iq.FU_type_0::SimdCmp                    0      0.00%     63.91% # Type of FU issued
system.cpu.iq.FU_type_0::SimdCvt                13962      0.11%     64.01% # Type of FU issued
system.cpu.iq.FU_type_0::SimdMisc                7170      0.05%     64.07% # Type of FU issued
system.cpu.iq.FU_type_0::SimdMult                   0      0.00%     64.07% # Type of FU issued
system.cpu.iq.FU_type_0::SimdMultAcc                0      0.00%     64.07% # Type of FU issued
system.cpu.iq.FU_type_0::SimdShift               2471      0.02%     64.08% # Type of FU issued
system.cpu.iq.FU_type_0::SimdShiftAcc               0      0.00%     64.08% # Type of FU issued
system.cpu.iq.FU_type_0::SimdDiv                    0      0.00%     64.08% # Type of FU issued
system.cpu.iq.FU_type_0::SimdSqrt                   0      0.00%     64.08% # Type of FU issued
system.cpu.iq.FU_type_0::SimdFloatAdd               0      0.00%     64.08% # Type of FU issued
system.cpu.iq.FU_type_0::SimdFloatAlu               0      0.00%     64.08% # Type of FU issued
system.cpu.iq.FU_type_0::SimdFloatCmp               0      0.00%     64.08% # Type of FU issued
system.cpu.iq.FU_type_0::SimdFloatCvt               0      0.00%     64.08% # Type of FU issued
system.cpu.iq.FU_type_0::SimdFloatDiv               0      0.00%     64.08% # Type of FU issued
system.cpu.iq.FU_type_0::SimdFloatMisc              0      0.00%     64.08% # Type of FU issued
system.cpu.iq.FU_type_0::SimdFloatMult              0      0.00%     64.08% # Type of FU issued
system.cpu.iq.FU_type_0::SimdFloatMultAcc            0      0.00%     64.08% # Type of FU issued
system.cpu.iq.FU_type_0::SimdFloatSqrt              0      0.00%     64.08% # Type of FU issued
system.cpu.iq.FU_type_0::SimdReduceAdd              0      0.00%     64.08% # Type of FU issued
system.cpu.iq.FU_type_0::SimdReduceAlu              0      0.00%     64.08% # Type of FU issued
system.cpu.iq.FU_type_0::SimdReduceCmp              0      0.00%     64.08% # Type of FU issued
system.cpu.iq.FU_type_0::SimdFloatReduceAdd            0      0.00%     64.08% # Type of FU issued
system.cpu.iq.FU_type_0::SimdFloatReduceCmp            0      0.00%     64.08% # Type of FU issued
system.cpu.iq.FU_type_0::SimdAes                    0      0.00%     64.08% # Type of FU issued
system.cpu.iq.FU_type_0::SimdAesMix                 0      0.00%     64.08% # Type of FU issued
system.cpu.iq.FU_type_0::SimdSha1Hash               0      0.00%     64.08% # Type of FU issued
system.cpu.iq.FU_type_0::SimdSha1Hash2              0      0.00%     64.08% # Type of FU issued
system.cpu.iq.FU_type_0::SimdSha256Hash             0      0.00%     64.08% # Type of FU issued
system.cpu.iq.FU_type_0::SimdSha256Hash2            0      0.00%     64.08% # Type of FU issued
system.cpu.iq.FU_type_0::SimdShaSigma2              0      0.00%     64.08% # Type of FU issued
system.cpu.iq.FU_type_0::SimdShaSigma3              0      0.00%     64.08% # Type of FU issued
system.cpu.iq.FU_type_0::SimdPredAlu                0      0.00%     64.08% # Type of FU issued
system.cpu.iq.FU_type_0::MemRead              1560889     11.85%     75.94% # Type of FU issued
system.cpu.iq.FU_type_0::MemWrite             1386431     10.53%     86.46% # Type of FU issued
system.cpu.iq.FU_type_0::FloatMemRead          858999      6.52%     92.98% # Type of FU issued
system.cpu.iq.FU_type_0::FloatMemWrite         924012      7.02%    100.00% # Type of FU issued
system.cpu.iq.FU_type_0::IprAccess                  0      0.00%    100.00% # Type of FU issued
system.cpu.iq.FU_type_0::InstPrefetch               0      0.00%    100.00% # Type of FU issued
system.cpu.iq.FU_type_0::total               13170710                       # Type of FU issued
system.cpu.iq.fp_alu_accesses                 1835141                       # Number of floating point alu accesses
system.cpu.iq.fp_inst_queue_reads             3671592                       # Number of floating instruction queue reads
system.cpu.iq.fp_inst_queue_wakeup_accesses      1718254                       # Number of floating instruction queue wakeup accesses
system.cpu.iq.fp_inst_queue_writes            3474501                       # Number of floating instruction queue writes
system.cpu.iq.fu_busy_cnt                           0                       # FU busy when requested
system.cpu.iq.fu_busy_rate                          0                       # FU busy rate (busy events/executed inst)
system.cpu.iq.fu_full::No_OpClass                   0                       # attempts to use FU when none available
system.cpu.iq.fu_full::IntAlu                       0                       # attempts to use FU when none available
system.cpu.iq.fu_full::IntMult                      0                       # attempts to use FU when none available
system.cpu.iq.fu_full::IntDiv                       0                       # attempts to use FU when none available
system.cpu.iq.fu_full::FloatAdd                     0                       # attempts to use FU when none available
system.cpu.iq.fu_full::FloatCmp                     0                       # attempts to use FU when none available
system.cpu.iq.fu_full::FloatCvt                     0                       # attempts to use FU when none available
system.cpu.iq.fu_full::FloatMult                    0                       # attempts to use FU when none available
system.cpu.iq.fu_full::FloatMultAcc                 0                       # attempts to use FU when none available
system.cpu.iq.fu_full::FloatDiv                     0                       # attempts to use FU when none available
system.cpu.iq.fu_full::FloatMisc                    0                       # attempts to use FU when none available
system.cpu.iq.fu_full::FloatSqrt                    0                       # attempts to use FU when none available
system.cpu.iq.fu_full::SimdAdd                      0                       # attempts to use FU when none available
system.cpu.iq.fu_full::SimdAddAcc                   0                       # attempts to use FU when none available
system.cpu.iq.fu_full::SimdAlu                      0                       # attempts to use FU when none available
system.cpu.iq.fu_full::SimdCmp                      0                       # attempts to use FU when none available
system.cpu.iq.fu_full::SimdCvt                      0                       # attempts to use FU when none available
system.cpu.iq.fu_full::SimdMisc                     0                       # attempts to use FU when none available
system.cpu.iq.fu_full::SimdMult                     0                       # attempts to use FU when none available
system.cpu.iq.fu_full::SimdMultAcc                  0                       # attempts to use FU when none available
system.cpu.iq.fu_full::SimdShift                    0                       # attempts to use FU when none available
system.cpu.iq.fu_full::SimdShiftAcc                 0                       # attempts to use FU when none available
system.cpu.iq.fu_full::SimdDiv                      0                       # attempts to use FU when none available
system.cpu.iq.fu_full::SimdSqrt                     0                       # attempts to use FU when none available
system.cpu.iq.fu_full::SimdFloatAdd                 0                       # attempts to use FU when none available
system.cpu.iq.fu_full::SimdFloatAlu                 0                       # attempts to use FU when none available
system.cpu.iq.fu_full::SimdFloatCmp                 0                       # attempts to use FU when none available
system.cpu.iq.fu_full::SimdFloatCvt                 0                       # attempts to use FU when none available
system.cpu.iq.fu_full::SimdFloatDiv                 0                       # attempts to use FU when none available
system.cpu.iq.fu_full::SimdFloatMisc                0                       # attempts to use FU when none available
system.cpu.iq.fu_full::SimdFloatMult                0                       # attempts to use FU when none available
system.cpu.iq.fu_full::SimdFloatMultAcc             0                       # attempts to use FU when none available
system.cpu.iq.fu_full::SimdFloatSqrt                0                       # attempts to use FU when none available
system.cpu.iq.fu_full::SimdReduceAdd                0                       # attempts to use FU when none available
system.cpu.iq.fu_full::SimdReduceAlu                0                       # attempts to use FU when none available
system.cpu.iq.fu_full::SimdReduceCmp                0                       # attempts to use FU when none available
system.cpu.iq.fu_full::SimdFloatReduceAdd            0                       # attempts to use FU when none available
system.cpu.iq.fu_full::SimdFloatReduceCmp            0                       # attempts to use FU when none available
system.cpu.iq.fu_full::SimdAes                      0                       # attempts to use FU when none available
system.cpu.iq.fu_full::SimdAesMix                   0                       # attempts to use FU when none available
system.cpu.iq.fu_full::SimdSha1Hash                 0                       # attempts to use FU when none available
system.cpu.iq.fu_full::SimdSha1Hash2                0                       # attempts to use FU when none available
system.cpu.iq.fu_full::SimdSha256Hash               0                       # attempts to use FU when none available
system.cpu.iq.fu_full::SimdSha256Hash2              0                       # attempts to use FU when none available
system.cpu.iq.fu_full::SimdShaSigma2                0                       # attempts to use FU when none available
system.cpu.iq.fu_full::SimdShaSigma3                0                       # attempts to use FU when none available
system.cpu.iq.fu_full::SimdPredAlu                  0                       # attempts to use FU when none available
system.cpu.iq.fu_full::MemRead                      0                       # attempts to use FU when none available
system.cpu.iq.fu_full::MemWrite                     0                       # attempts to use FU when none available
system.cpu.iq.fu_full::FloatMemRead                 0                       # attempts to use FU when none available
system.cpu.iq.fu_full::FloatMemWrite                0                       # attempts to use FU when none available
system.cpu.iq.fu_full::IprAccess                    0                       # attempts to use FU when none available
system.cpu.iq.fu_full::InstPrefetch                 0                       # attempts to use FU when none available
system.cpu.iq.int_alu_accesses               10884890                       # Number of integer alu accesses
system.cpu.iq.int_inst_queue_reads           34469635                       # Number of integer instruction queue reads
system.cpu.iq.int_inst_queue_wakeup_accesses     10779115                       # Number of integer instruction queue wakeup accesses
system.cpu.iq.int_inst_queue_writes          14815740                       # Number of integer instruction queue writes
system.cpu.iq.iqInstsAdded                   13540241                       # Number of instructions added to the IQ (excludes non-spec)
system.cpu.iq.iqInstsIssued                  13170710                       # Number of instructions issued
system.cpu.iq.iqNonSpecInstsAdded                4372                       # Number of non-speculative instructions added to the IQ
system.cpu.iq.iqSquashedInstsExamined         4745482                       # Number of squashed instructions iterated over during squash; mainly for profiling
system.cpu.iq.iqSquashedInstsIssued             19632                       # Number of squashed instructions issued
system.cpu.iq.iqSquashedNonSpecRemoved           2602                       # Number of squashed non-spec instructions that were removed
system.cpu.iq.iqSquashedOperandsExamined      1995091                       # Number of squashed operands that are examined and possibly removed from graph
system.cpu.iq.issued_per_cycle::samples      11780178                       # Number of insts issued each cycle
system.cpu.iq.issued_per_cycle::mean         1.118040                       # Number of insts issued each cycle
system.cpu.iq.issued_per_cycle::stdev        1.605395                       # Number of insts issued each cycle
system.cpu.iq.issued_per_cycle::underflows            0      0.00%      0.00% # Number of insts issued each cycle
system.cpu.iq.issued_per_cycle::0             7416554     62.96%     62.96% # Number of insts issued each cycle
system.cpu.iq.issued_per_cycle::1              583743      4.96%     67.91% # Number of insts issued each cycle
system.cpu.iq.issued_per_cycle::2              876205      7.44%     75.35% # Number of insts issued each cycle
system.cpu.iq.issued_per_cycle::3              780147      6.62%     81.97% # Number of insts issued each cycle
system.cpu.iq.issued_per_cycle::4             2123529     18.03%    100.00% # Number of insts issued each cycle
system.cpu.iq.issued_per_cycle::overflows            0      0.00%    100.00% # Number of insts issued each cycle
system.cpu.iq.issued_per_cycle::min_value            0                       # Number of insts issued each cycle
system.cpu.iq.issued_per_cycle::max_value            4                       # Number of insts issued each cycle
system.cpu.iq.issued_per_cycle::total        11780178                       # Number of insts issued each cycle
system.cpu.iq.rate                           1.101749                       # Inst issue rate
system.cpu.iq.vec_alu_accesses                      0                       # Number of vector alu accesses
system.cpu.iq.vec_inst_queue_reads                  0                       # Number of vector instruction queue reads
system.cpu.iq.vec_inst_queue_wakeup_accesses            0                       # Number of vector instruction queue wakeup accesses
system.cpu.iq.vec_inst_queue_writes                 0                       # Number of vector instruction queue writes
system.cpu.itb.rdAccesses                           0                       # TLB accesses on read requests
system.cpu.itb.rdMisses                             0                       # TLB misses on read requests
system.cpu.itb.wrAccesses                      686813                       # TLB accesses on write requests
system.cpu.itb.wrMisses                           360                       # TLB misses on write requests
system.cpu.memDep0.conflictingLoads             13101                       # Number of conflicting loads.
system.cpu.memDep0.conflictingStores            44124                       # Number of conflicting stores.
system.cpu.memDep0.insertedLoads              2443452                       # Number of loads inserted to the mem dependence unit.
system.cpu.memDep0.insertedStores             2344277                       # Number of stores inserted to the mem dependence unit.
system.cpu.misc_regfile_reads                 6255834                       # number of misc regfile reads
system.cpu.misc_regfile_writes                    720                       # number of misc regfile writes
system.cpu.numCycles                         11954362                       # number of cpu cycles simulated
system.cpu.numWorkItemsCompleted                    0                       # number of work items this cpu completed
system.cpu.numWorkItemsStarted                      0                       # number of work items this cpu started
system.cpu.process.numSyscalls                    550                       # Number of system calls
system.cpu.rename.BlockCycles                 1673361                       # Number of cycles rename is blocking
system.cpu.rename.CommittedMaps              11036277                       # Number of HB maps that are committed
system.cpu.rename.FullRegisterEvents               26                       # Number of times there has been no free registers
system.cpu.rename.IQFullEvents                  55262                       # Number of times rename has blocked due to IQ full
system.cpu.rename.IdleCycles                  1014326                       # Number of cycles rename is idle
system.cpu.rename.LQFullEvents                  13893                       # Number of times rename has blocked due to LQ full
system.cpu.rename.ROBFullEvents                  6887                       # Number of times rename has blocked due to ROB full
system.cpu.rename.RenameLookups              34773533                       # Number of register rename lookups that rename has made
system.cpu.rename.RenamedInsts               13972519                       # Number of instructions processed by rename
system.cpu.rename.RenamedOperands            15525812                       # Number of destination operands rename has renamed
system.cpu.rename.RunCycles                   3307803                       # Number of cycles rename is running
system.cpu.rename.SQFullEvents                5352126                       # Number of times rename has blocked due to SQ full
system.cpu.rename.SquashCycles                  72399                       # Number of cycles rename is squashing
system.cpu.rename.UnblockCycles               5679833                       # Number of cycles rename is unblocking
system.cpu.rename.UndoneMaps                  4489508                       # Number of HB maps that are undone due to squashing
system.cpu.rename.fp_rename_lookups           1132473                       # Number of floating rename lookups
system.cpu.rename.int_rename_lookups         22062124                       # Number of integer rename lookups
system.cpu.rename.serializeStallCycles          32456                       # count of cycles rename stalled for serializing inst
system.cpu.rename.serializingInsts               1418                       # count of serializing insts renamed
system.cpu.rename.skidInsts                   1742235                       # count of insts added to the skid buffer
system.cpu.rename.tempSerializingInsts           1471                       # count of temporary serializing insts renamed
system.cpu.rob.rob_reads                     20780989                       # The number of ROB reads
system.cpu.rob.rob_writes                    24602203                       # The number of ROB writes
system.cpu.timesIdled                            1717                       # Number of times that the entire CPU went into an idle state and unscheduled itself
system.l2bus.snoop_filter.hit_multi_requests           16                       # Number of requests hitting in the snoop filter with multiple (>1) holders of the requested data.
system.l2bus.snoop_filter.hit_multi_snoops            1                       # Number of snoops hitting in the snoop filter with multiple (>1) holders of the requested data.
system.l2bus.snoop_filter.hit_single_requests        86977                       # Number of requests hitting in the snoop filter with a single holder of the requested data.
system.l2bus.snoop_filter.hit_single_snoops          932                       # Number of snoops hitting in the snoop filter with a single holder of the requested data.
system.l2bus.snoop_filter.tot_requests         175234                       # Total number of requests made to the snoop filter.
system.l2bus.snoop_filter.tot_snoops              933                       # Total number of snoops made to the snoop filter.
system.l2cache.prefetcher.num_hwpf_issued        19776                       # number of hwpf issued
system.l2cache.prefetcher.pfBufferHit               0                       # number of redundant prefetches already in prefetch queue
system.l2cache.prefetcher.pfIdentified          19779                       # number of prefetch candidates identified
system.l2cache.prefetcher.pfInCache                 0                       # number of redundant prefetches already in cache/mshr dropped
system.l2cache.prefetcher.pfRemovedFull             0                       # number of prefetches dropped due to prefetch queue size
system.l2cache.prefetcher.pfSpanPage             5049                       # number of prefetches that crossed the page
system.membus.snoop_filter.hit_multi_requests            0                       # Number of requests hitting in the snoop filter with multiple (>1) holders of the requested data.
system.membus.snoop_filter.hit_multi_snoops            0                       # Number of snoops hitting in the snoop filter with multiple (>1) holders of the requested data.
system.membus.snoop_filter.hit_single_requests        77161                       # Number of requests hitting in the snoop filter with a single holder of the requested data.
system.membus.snoop_filter.hit_single_snoops            0                       # Number of snoops hitting in the snoop filter with a single holder of the requested data.
system.membus.snoop_filter.tot_requests        158595                       # Total number of requests made to the snoop filter.
system.membus.snoop_filter.tot_snoops               0                       # Total number of snoops made to the snoop filter.
system.membus.pwrStateResidencyTicks::UNDEFINED   4781744400                       # Cumulative time (in ticks) in various power states
system.membus.trans_dist::ReadResp              51768                       # Transaction distribution
system.membus.trans_dist::WritebackDirty        55034                       # Transaction distribution
system.membus.trans_dist::CleanEvict            22126                       # Transaction distribution
system.membus.trans_dist::UpgradeReq                1                       # Transaction distribution
system.membus.trans_dist::ReadExReq             29666                       # Transaction distribution
system.membus.trans_dist::ReadExResp            29666                       # Transaction distribution
system.membus.trans_dist::ReadSharedReq         51768                       # Transaction distribution
system.membus.pkt_count_system.l2cache.mem_side::system.mem_ctrl.port       240029                       # Packet count per connected master and slave (bytes)
system.membus.pkt_count_system.l2cache.mem_side::total       240029                       # Packet count per connected master and slave (bytes)
system.membus.pkt_count::total                 240029                       # Packet count per connected master and slave (bytes)
system.membus.pkt_size_system.l2cache.mem_side::system.mem_ctrl.port      8733952                       # Cumulative packet size per connected master and slave (bytes)
system.membus.pkt_size_system.l2cache.mem_side::total      8733952                       # Cumulative packet size per connected master and slave (bytes)
system.membus.pkt_size::total                 8733952                       # Cumulative packet size per connected master and slave (bytes)
system.membus.snoops                                0                       # Total snoops (count)
system.membus.snoopTraffic                          0                       # Total snoop traffic (bytes)
system.membus.snoop_fanout::samples             81435                       # Request fanout histogram
system.membus.snoop_fanout::mean                    0                       # Request fanout histogram
system.membus.snoop_fanout::stdev                   0                       # Request fanout histogram
system.membus.snoop_fanout::underflows              0      0.00%      0.00% # Request fanout histogram
system.membus.snoop_fanout::0                   81435    100.00%    100.00% # Request fanout histogram
system.membus.snoop_fanout::1                       0      0.00%    100.00% # Request fanout histogram
system.membus.snoop_fanout::overflows               0      0.00%    100.00% # Request fanout histogram
system.membus.snoop_fanout::min_value               0                       # Request fanout histogram
system.membus.snoop_fanout::max_value               0                       # Request fanout histogram
system.membus.snoop_fanout::total               81435                       # Request fanout histogram
system.membus.reqLayer2.occupancy           152859453                       # Layer occupancy (ticks)
system.membus.reqLayer2.utilization               3.2                       # Layer utilization (%)
system.membus.respLayer0.occupancy          176859347                       # Layer occupancy (ticks)
system.membus.respLayer0.utilization              3.7                       # Layer utilization (%)
system.l2bus.pwrStateResidencyTicks::UNDEFINED   4781744400                       # Cumulative time (in ticks) in various power states
system.l2bus.trans_dist::ReadResp               57652                       # Transaction distribution
system.l2bus.trans_dist::WritebackDirty        113668                       # Transaction distribution
system.l2bus.trans_dist::CleanEvict             50776                       # Transaction distribution
system.l2bus.trans_dist::HardPFReq              22941                       # Transaction distribution
system.l2bus.trans_dist::UpgradeReq                 2                       # Transaction distribution
system.l2bus.trans_dist::UpgradeResp                2                       # Transaction distribution
system.l2bus.trans_dist::ReadExReq              30605                       # Transaction distribution
system.l2bus.trans_dist::ReadExResp             30605                       # Transaction distribution
system.l2bus.trans_dist::ReadSharedReq          57652                       # Transaction distribution
system.l2bus.pkt_count_system.cpu.icache.mem_side::system.l2cache.cpu_side         9090                       # Packet count per connected master and slave (bytes)
system.l2bus.pkt_count_system.cpu.dcache.mem_side::system.l2cache.cpu_side       254397                       # Packet count per connected master and slave (bytes)
system.l2bus.pkt_count::total                  263487                       # Packet count per connected master and slave (bytes)
system.l2bus.pkt_size_system.cpu.icache.mem_side::system.l2cache.cpu_side       199168                       # Cumulative packet size per connected master and slave (bytes)
system.l2bus.pkt_size_system.cpu.dcache.mem_side::system.l2cache.cpu_side      9201472                       # Cumulative packet size per connected master and slave (bytes)
system.l2bus.pkt_size::total                  9400640                       # Cumulative packet size per connected master and slave (bytes)
system.l2bus.snoops                            100416                       # Total snoops (count)
system.l2bus.snoopTraffic                     3522560                       # Total snoop traffic (bytes)
system.l2bus.snoop_fanout::samples             188669                       # Request fanout histogram
system.l2bus.snoop_fanout::mean              0.005046                       # Request fanout histogram
system.l2bus.snoop_fanout::stdev             0.070930                       # Request fanout histogram
system.l2bus.snoop_fanout::underflows               0      0.00%      0.00% # Request fanout histogram
system.l2bus.snoop_fanout::0                   187718     99.50%     99.50% # Request fanout histogram
system.l2bus.snoop_fanout::1                      950      0.50%    100.00% # Request fanout histogram
system.l2bus.snoop_fanout::2                        1      0.00%    100.00% # Request fanout histogram
system.l2bus.snoop_fanout::overflows                0      0.00%    100.00% # Request fanout histogram
system.l2bus.snoop_fanout::min_value                0                       # Request fanout histogram
system.l2bus.snoop_fanout::max_value                2                       # Request fanout histogram
system.l2bus.snoop_fanout::total               188669                       # Request fanout histogram
system.l2bus.respLayer1.occupancy           102167999                       # Layer occupancy (ticks)
system.l2bus.respLayer1.utilization               2.1                       # Layer utilization (%)
system.l2bus.reqLayer0.occupancy            130516056                       # Layer occupancy (ticks)
system.l2bus.reqLayer0.utilization                2.7                       # Layer utilization (%)
system.l2bus.respLayer0.occupancy             3742797                       # Layer occupancy (ticks)
system.l2bus.respLayer0.utilization               0.1                       # Layer utilization (%)
system.clk_domain.clock                           400                       # Clock period in ticks
system.clk_domain.voltage_domain.voltage            1                       # Voltage in Volts
system.cpu.pwrStateResidencyTicks::ON      4781744400                       # Cumulative time (in ticks) in various power states
system.cpu.icache.pwrStateResidencyTicks::UNDEFINED   4781744400                       # Cumulative time (in ticks) in various power states
system.cpu.icache.demand_hits::.cpu.inst       682861                       # number of demand (read+write) hits
system.cpu.icache.demand_hits::total           682861                       # number of demand (read+write) hits
system.cpu.icache.overall_hits::.cpu.inst       682861                       # number of overall hits
system.cpu.icache.overall_hits::total          682861                       # number of overall hits
system.cpu.icache.demand_misses::.cpu.inst         3846                       # number of demand (read+write) misses
system.cpu.icache.demand_misses::total           3846                       # number of demand (read+write) misses
system.cpu.icache.overall_misses::.cpu.inst         3846                       # number of overall misses
system.cpu.icache.overall_misses::total          3846                       # number of overall misses
system.cpu.icache.demand_miss_latency::.cpu.inst    190515600                       # number of demand (read+write) miss cycles
system.cpu.icache.demand_miss_latency::total    190515600                       # number of demand (read+write) miss cycles
system.cpu.icache.overall_miss_latency::.cpu.inst    190515600                       # number of overall miss cycles
system.cpu.icache.overall_miss_latency::total    190515600                       # number of overall miss cycles
system.cpu.icache.demand_accesses::.cpu.inst       686707                       # number of demand (read+write) accesses
system.cpu.icache.demand_accesses::total       686707                       # number of demand (read+write) accesses
system.cpu.icache.overall_accesses::.cpu.inst       686707                       # number of overall (read+write) accesses
system.cpu.icache.overall_accesses::total       686707                       # number of overall (read+write) accesses
system.cpu.icache.demand_miss_rate::.cpu.inst     0.005601                       # miss rate for demand accesses
system.cpu.icache.demand_miss_rate::total     0.005601                       # miss rate for demand accesses
system.cpu.icache.overall_miss_rate::.cpu.inst     0.005601                       # miss rate for overall accesses
system.cpu.icache.overall_miss_rate::total     0.005601                       # miss rate for overall accesses
system.cpu.icache.demand_avg_miss_latency::.cpu.inst 49536.037441                       # average overall miss latency
system.cpu.icache.demand_avg_miss_latency::total 49536.037441                       # average overall miss latency
system.cpu.icache.overall_avg_miss_latency::.cpu.inst 49536.037441                       # average overall miss latency
system.cpu.icache.overall_avg_miss_latency::total 49536.037441                       # average overall miss latency
system.cpu.icache.blocked_cycles::no_mshrs           80                       # number of cycles access was blocked
system.cpu.icache.blocked_cycles::no_targets            0                       # number of cycles access was blocked
system.cpu.icache.blocked::no_mshrs                 5                       # number of cycles access was blocked
system.cpu.icache.blocked::no_targets               0                       # number of cycles access was blocked
system.cpu.icache.avg_blocked_cycles::no_mshrs           16                       # average number of cycles each access was blocked
system.cpu.icache.avg_blocked_cycles::no_targets          nan                       # average number of cycles each access was blocked
system.cpu.icache.demand_mshr_hits::.cpu.inst          728                       # number of demand (read+write) MSHR hits
system.cpu.icache.demand_mshr_hits::total          728                       # number of demand (read+write) MSHR hits
system.cpu.icache.overall_mshr_hits::.cpu.inst          728                       # number of overall MSHR hits
system.cpu.icache.overall_mshr_hits::total          728                       # number of overall MSHR hits
system.cpu.icache.demand_mshr_misses::.cpu.inst         3118                       # number of demand (read+write) MSHR misses
system.cpu.icache.demand_mshr_misses::total         3118                       # number of demand (read+write) MSHR misses
system.cpu.icache.overall_mshr_misses::.cpu.inst         3118                       # number of overall MSHR misses
system.cpu.icache.overall_mshr_misses::total         3118                       # number of overall MSHR misses
system.cpu.icache.demand_mshr_miss_latency::.cpu.inst    154924000                       # number of demand (read+write) MSHR miss cycles
system.cpu.icache.demand_mshr_miss_latency::total    154924000                       # number of demand (read+write) MSHR miss cycles
system.cpu.icache.overall_mshr_miss_latency::.cpu.inst    154924000                       # number of overall MSHR miss cycles
system.cpu.icache.overall_mshr_miss_latency::total    154924000                       # number of overall MSHR miss cycles
system.cpu.icache.demand_mshr_miss_rate::.cpu.inst     0.004541                       # mshr miss rate for demand accesses
system.cpu.icache.demand_mshr_miss_rate::total     0.004541                       # mshr miss rate for demand accesses
system.cpu.icache.overall_mshr_miss_rate::.cpu.inst     0.004541                       # mshr miss rate for overall accesses
system.cpu.icache.overall_mshr_miss_rate::total     0.004541                       # mshr miss rate for overall accesses
system.cpu.icache.demand_avg_mshr_miss_latency::.cpu.inst 49686.978833                       # average overall mshr miss latency
system.cpu.icache.demand_avg_mshr_miss_latency::total 49686.978833                       # average overall mshr miss latency
system.cpu.icache.overall_avg_mshr_miss_latency::.cpu.inst 49686.978833                       # average overall mshr miss latency
system.cpu.icache.overall_avg_mshr_miss_latency::total 49686.978833                       # average overall mshr miss latency
system.cpu.icache.replacements                   2860                       # number of replacements
system.cpu.icache.ReadReq_hits::.cpu.inst       682861                       # number of ReadReq hits
system.cpu.icache.ReadReq_hits::total          682861                       # number of ReadReq hits
system.cpu.icache.ReadReq_misses::.cpu.inst         3846                       # number of ReadReq misses
system.cpu.icache.ReadReq_misses::total          3846                       # number of ReadReq misses
system.cpu.icache.ReadReq_miss_latency::.cpu.inst    190515600                       # number of ReadReq miss cycles
system.cpu.icache.ReadReq_miss_latency::total    190515600                       # number of ReadReq miss cycles
system.cpu.icache.ReadReq_accesses::.cpu.inst       686707                       # number of ReadReq accesses(hits+misses)
system.cpu.icache.ReadReq_accesses::total       686707                       # number of ReadReq accesses(hits+misses)
system.cpu.icache.ReadReq_miss_rate::.cpu.inst     0.005601                       # miss rate for ReadReq accesses
system.cpu.icache.ReadReq_miss_rate::total     0.005601                       # miss rate for ReadReq accesses
system.cpu.icache.ReadReq_avg_miss_latency::.cpu.inst 49536.037441                       # average ReadReq miss latency
system.cpu.icache.ReadReq_avg_miss_latency::total 49536.037441                       # average ReadReq miss latency
system.cpu.icache.ReadReq_mshr_hits::.cpu.inst          728                       # number of ReadReq MSHR hits
system.cpu.icache.ReadReq_mshr_hits::total          728                       # number of ReadReq MSHR hits
system.cpu.icache.ReadReq_mshr_misses::.cpu.inst         3118                       # number of ReadReq MSHR misses
system.cpu.icache.ReadReq_mshr_misses::total         3118                       # number of ReadReq MSHR misses
system.cpu.icache.ReadReq_mshr_miss_latency::.cpu.inst    154924000                       # number of ReadReq MSHR miss cycles
system.cpu.icache.ReadReq_mshr_miss_latency::total    154924000                       # number of ReadReq MSHR miss cycles
system.cpu.icache.ReadReq_mshr_miss_rate::.cpu.inst     0.004541                       # mshr miss rate for ReadReq accesses
system.cpu.icache.ReadReq_mshr_miss_rate::total     0.004541                       # mshr miss rate for ReadReq accesses
system.cpu.icache.ReadReq_avg_mshr_miss_latency::.cpu.inst 49686.978833                       # average ReadReq mshr miss latency
system.cpu.icache.ReadReq_avg_mshr_miss_latency::total 49686.978833                       # average ReadReq mshr miss latency
system.cpu.icache.prefetcher.pwrStateResidencyTicks::UNDEFINED   4781744400                       # Cumulative time (in ticks) in various power states
system.cpu.icache.tags.pwrStateResidencyTicks::UNDEFINED   4781744400                       # Cumulative time (in ticks) in various power states
system.cpu.icache.tags.tagsinuse           255.420904                       # Cycle average of tags in use
system.cpu.icache.tags.total_refs              370092                       # Total number of references to valid blocks.
system.cpu.icache.tags.sampled_refs              2862                       # Sample count of references to valid blocks.
system.cpu.icache.tags.avg_refs            129.312369                       # Average number of references to valid blocks.
system.cpu.icache.tags.warmup_cycle             66400                       # Cycle when the warmup percentage was hit.
system.cpu.icache.tags.occ_blocks::.cpu.inst   255.420904                       # Average occupied blocks per requestor
system.cpu.icache.tags.occ_percent::.cpu.inst     0.997738                       # Average percentage of cache occupancy
system.cpu.icache.tags.occ_percent::total     0.997738                       # Average percentage of cache occupancy
system.cpu.icache.tags.occ_task_id_blocks::1024          256                       # Occupied blocks per task id
system.cpu.icache.tags.age_task_id_blocks_1024::0           76                       # Occupied blocks per task id
system.cpu.icache.tags.age_task_id_blocks_1024::1            2                       # Occupied blocks per task id
system.cpu.icache.tags.age_task_id_blocks_1024::3          178                       # Occupied blocks per task id
system.cpu.icache.tags.occ_task_id_percent::1024            1                       # Percentage of cache occupancy per task id
system.cpu.icache.tags.tag_accesses           1376532                       # Number of tag accesses
system.cpu.icache.tags.data_accesses          1376532                       # Number of data accesses
system.cpu.dtb.walker.pwrStateResidencyTicks::UNDEFINED   4781744400                       # Cumulative time (in ticks) in various power states
system.cpu.interrupts.clk_domain.clock           6400                       # Clock period in ticks
system.cpu.itb.walker.pwrStateResidencyTicks::UNDEFINED   4781744400                       # Cumulative time (in ticks) in various power states
system.cpu.dcache.pwrStateResidencyTicks::UNDEFINED   4781744400                       # Cumulative time (in ticks) in various power states
system.cpu.dcache.demand_hits::.cpu.data      3072633                       # number of demand (read+write) hits
system.cpu.dcache.demand_hits::total          3072633                       # number of demand (read+write) hits
system.cpu.dcache.overall_hits::.cpu.data      3274665                       # number of overall hits
system.cpu.dcache.overall_hits::total         3274665                       # number of overall hits
system.cpu.dcache.demand_misses::.cpu.data        99605                       # number of demand (read+write) misses
system.cpu.dcache.demand_misses::total          99605                       # number of demand (read+write) misses
system.cpu.dcache.overall_misses::.cpu.data       100213                       # number of overall misses
system.cpu.dcache.overall_misses::total        100213                       # number of overall misses
system.cpu.dcache.demand_miss_latency::.cpu.data   5927425998                       # number of demand (read+write) miss cycles
system.cpu.dcache.demand_miss_latency::total   5927425998                       # number of demand (read+write) miss cycles
system.cpu.dcache.overall_miss_latency::.cpu.data   5927425998                       # number of overall miss cycles
system.cpu.dcache.overall_miss_latency::total   5927425998                       # number of overall miss cycles
system.cpu.dcache.demand_accesses::.cpu.data      3172238                       # number of demand (read+write) accesses
system.cpu.dcache.demand_accesses::total      3172238                       # number of demand (read+write) accesses
system.cpu.dcache.overall_accesses::.cpu.data      3374878                       # number of overall (read+write) accesses
system.cpu.dcache.overall_accesses::total      3374878                       # number of overall (read+write) accesses
system.cpu.dcache.demand_miss_rate::.cpu.data     0.031399                       # miss rate for demand accesses
system.cpu.dcache.demand_miss_rate::total     0.031399                       # miss rate for demand accesses
system.cpu.dcache.overall_miss_rate::.cpu.data     0.029694                       # miss rate for overall accesses
system.cpu.dcache.overall_miss_rate::total     0.029694                       # miss rate for overall accesses
system.cpu.dcache.demand_avg_miss_latency::.cpu.data 59509.321801                       # average overall miss latency
system.cpu.dcache.demand_avg_miss_latency::total 59509.321801                       # average overall miss latency
system.cpu.dcache.overall_avg_miss_latency::.cpu.data 59148.274156                       # average overall miss latency
system.cpu.dcache.overall_avg_miss_latency::total 59148.274156                       # average overall miss latency
system.cpu.dcache.blocked_cycles::no_mshrs        49372                       # number of cycles access was blocked
system.cpu.dcache.blocked_cycles::no_targets          588                       # number of cycles access was blocked
system.cpu.dcache.blocked::no_mshrs              1023                       # number of cycles access was blocked
system.cpu.dcache.blocked::no_targets               5                       # number of cycles access was blocked
system.cpu.dcache.avg_blocked_cycles::no_mshrs    48.261975                       # average number of cycles each access was blocked
system.cpu.dcache.avg_blocked_cycles::no_targets   117.600000                       # average number of cycles each access was blocked
system.cpu.dcache.unused_prefetches              2035                       # number of HardPF blocks evicted w/o reference
system.cpu.dcache.writebacks::.writebacks        58634                       # number of writebacks
system.cpu.dcache.writebacks::total             58634                       # number of writebacks
system.cpu.dcache.demand_mshr_hits::.cpu.data        56304                       # number of demand (read+write) MSHR hits
system.cpu.dcache.demand_mshr_hits::total        56304                       # number of demand (read+write) MSHR hits
system.cpu.dcache.overall_mshr_hits::.cpu.data        56304                       # number of overall MSHR hits
system.cpu.dcache.overall_mshr_hits::total        56304                       # number of overall MSHR hits
system.cpu.dcache.demand_mshr_misses::.cpu.data        43301                       # number of demand (read+write) MSHR misses
system.cpu.dcache.demand_mshr_misses::total        43301                       # number of demand (read+write) MSHR misses
system.cpu.dcache.overall_mshr_misses::.cpu.data        43695                       # number of overall MSHR misses
system.cpu.dcache.overall_mshr_misses::.cpu.dcache.prefetcher        41446                       # number of overall MSHR misses
system.cpu.dcache.overall_mshr_misses::total        85141                       # number of overall MSHR misses
system.cpu.dcache.demand_mshr_miss_latency::.cpu.data   2809126398                       # number of demand (read+write) MSHR miss cycles
system.cpu.dcache.demand_mshr_miss_latency::total   2809126398                       # number of demand (read+write) MSHR miss cycles
system.cpu.dcache.overall_mshr_miss_latency::.cpu.data   2819915198                       # number of overall MSHR miss cycles
system.cpu.dcache.overall_mshr_miss_latency::.cpu.dcache.prefetcher   2290369972                       # number of overall MSHR miss cycles
system.cpu.dcache.overall_mshr_miss_latency::total   5110285170                       # number of overall MSHR miss cycles
system.cpu.dcache.demand_mshr_miss_rate::.cpu.data     0.013650                       # mshr miss rate for demand accesses
system.cpu.dcache.demand_mshr_miss_rate::total     0.013650                       # mshr miss rate for demand accesses
system.cpu.dcache.overall_mshr_miss_rate::.cpu.data     0.012947                       # mshr miss rate for overall accesses
system.cpu.dcache.overall_mshr_miss_rate::.cpu.dcache.prefetcher          inf                       # mshr miss rate for overall accesses
system.cpu.dcache.overall_mshr_miss_rate::total     0.025228                       # mshr miss rate for overall accesses
system.cpu.dcache.demand_avg_mshr_miss_latency::.cpu.data 64874.400083                       # average overall mshr miss latency
system.cpu.dcache.demand_avg_mshr_miss_latency::total 64874.400083                       # average overall mshr miss latency
system.cpu.dcache.overall_avg_mshr_miss_latency::.cpu.data 64536.335919                       # average overall mshr miss latency
system.cpu.dcache.overall_avg_mshr_miss_latency::.cpu.dcache.prefetcher 55261.544467                       # average overall mshr miss latency
system.cpu.dcache.overall_avg_mshr_miss_latency::total 60021.437028                       # average overall mshr miss latency
system.cpu.dcache.replacements                  84115                       # number of replacements
system.cpu.dcache.ReadReq_hits::.cpu.data      2052395                       # number of ReadReq hits
system.cpu.dcache.ReadReq_hits::total         2052395                       # number of ReadReq hits
system.cpu.dcache.ReadReq_misses::.cpu.data        68267                       # number of ReadReq misses
system.cpu.dcache.ReadReq_misses::total         68267                       # number of ReadReq misses
system.cpu.dcache.ReadReq_miss_latency::.cpu.data   3702250400                       # number of ReadReq miss cycles
system.cpu.dcache.ReadReq_miss_latency::total   3702250400                       # number of ReadReq miss cycles
system.cpu.dcache.ReadReq_accesses::.cpu.data      2120662                       # number of ReadReq accesses(hits+misses)
system.cpu.dcache.ReadReq_accesses::total      2120662                       # number of ReadReq accesses(hits+misses)
system.cpu.dcache.ReadReq_miss_rate::.cpu.data     0.032191                       # miss rate for ReadReq accesses
system.cpu.dcache.ReadReq_miss_rate::total     0.032191                       # miss rate for ReadReq accesses
system.cpu.dcache.ReadReq_avg_miss_latency::.cpu.data 54231.918789                       # average ReadReq miss latency
system.cpu.dcache.ReadReq_avg_miss_latency::total 54231.918789                       # average ReadReq miss latency
system.cpu.dcache.ReadReq_mshr_hits::.cpu.data        55571                       # number of ReadReq MSHR hits
system.cpu.dcache.ReadReq_mshr_hits::total        55571                       # number of ReadReq MSHR hits
system.cpu.dcache.ReadReq_mshr_misses::.cpu.data        12696                       # number of ReadReq MSHR misses
system.cpu.dcache.ReadReq_mshr_misses::total        12696                       # number of ReadReq MSHR misses
system.cpu.dcache.ReadReq_mshr_miss_latency::.cpu.data    642550800                       # number of ReadReq MSHR miss cycles
system.cpu.dcache.ReadReq_mshr_miss_latency::total    642550800                       # number of ReadReq MSHR miss cycles
system.cpu.dcache.ReadReq_mshr_miss_rate::.cpu.data     0.005987                       # mshr miss rate for ReadReq accesses
system.cpu.dcache.ReadReq_mshr_miss_rate::total     0.005987                       # mshr miss rate for ReadReq accesses
system.cpu.dcache.ReadReq_avg_mshr_miss_latency::.cpu.data 50610.491493                       # average ReadReq mshr miss latency
system.cpu.dcache.ReadReq_avg_mshr_miss_latency::total 50610.491493                       # average ReadReq mshr miss latency
system.cpu.dcache.WriteReq_hits::.cpu.data      1020238                       # number of WriteReq hits
system.cpu.dcache.WriteReq_hits::total        1020238                       # number of WriteReq hits
system.cpu.dcache.WriteReq_misses::.cpu.data        31338                       # number of WriteReq misses
system.cpu.dcache.WriteReq_misses::total        31338                       # number of WriteReq misses
system.cpu.dcache.WriteReq_miss_latency::.cpu.data   2225175598                       # number of WriteReq miss cycles
system.cpu.dcache.WriteReq_miss_latency::total   2225175598                       # number of WriteReq miss cycles
system.cpu.dcache.WriteReq_accesses::.cpu.data      1051576                       # number of WriteReq accesses(hits+misses)
system.cpu.dcache.WriteReq_accesses::total      1051576                       # number of WriteReq accesses(hits+misses)
system.cpu.dcache.WriteReq_miss_rate::.cpu.data     0.029801                       # miss rate for WriteReq accesses
system.cpu.dcache.WriteReq_miss_rate::total     0.029801                       # miss rate for WriteReq accesses
system.cpu.dcache.WriteReq_avg_miss_latency::.cpu.data 71005.667177                       # average WriteReq miss latency
system.cpu.dcache.WriteReq_avg_miss_latency::total 71005.667177                       # average WriteReq miss latency
system.cpu.dcache.WriteReq_mshr_hits::.cpu.data          733                       # number of WriteReq MSHR hits
system.cpu.dcache.WriteReq_mshr_hits::total          733                       # number of WriteReq MSHR hits
[...]
system.l2cache.demand_mshr_miss_rate::.cpu.inst     0.576483                       # mshr miss rate for demand accesses
system.l2cache.demand_mshr_miss_rate::.cpu.data     0.946089                       # mshr miss rate for demand accesses
system.l2cache.demand_mshr_miss_rate::.cpu.dcache.prefetcher     0.876737                       # mshr miss rate for demand accesses
system.l2cache.demand_mshr_miss_rate::total     0.904412                       # mshr miss rate for demand accesses
system.l2cache.overall_mshr_miss_rate::.cpu.inst     0.576483                       # mshr miss rate for overall accesses
system.l2cache.overall_mshr_miss_rate::.cpu.data     0.946089                       # mshr miss rate for overall accesses
system.l2cache.overall_mshr_miss_rate::.cpu.dcache.prefetcher     0.876737                       # mshr miss rate for overall accesses
system.l2cache.overall_mshr_miss_rate::.l2cache.prefetcher          inf                       # mshr miss rate for overall accesses
system.l2cache.overall_mshr_miss_rate::total     0.993856                       # mshr miss rate for overall accesses
system.l2cache.demand_avg_mshr_miss_latency::.cpu.inst 62788.447653                       # average overall mshr miss latency
system.l2cache.demand_avg_mshr_miss_latency::.cpu.data 61700.949724                       # average overall mshr miss latency
system.l2cache.demand_avg_mshr_miss_latency::.cpu.dcache.prefetcher 63363.327810                       # average overall mshr miss latency
system.l2cache.demand_avg_mshr_miss_latency::total 62559.970547                       # average overall mshr miss latency
system.l2cache.overall_avg_mshr_miss_latency::.cpu.inst 62788.447653                       # average overall mshr miss latency
system.l2cache.overall_avg_mshr_miss_latency::.cpu.data 61700.949724                       # average overall mshr miss latency
system.l2cache.overall_avg_mshr_miss_latency::.cpu.dcache.prefetcher 63363.327810                       # average overall mshr miss latency
system.l2cache.overall_avg_mshr_miss_latency::.l2cache.prefetcher 63506.576427                       # average overall mshr miss latency
system.l2cache.overall_avg_mshr_miss_latency::total 62645.162741                       # average overall mshr miss latency
system.l2cache.replacements                     68942                       # number of replacements
system.l2cache.WritebackDirty_hits::.writebacks        12363                       # number of WritebackDirty hits
system.l2cache.WritebackDirty_hits::total        12363                       # number of WritebackDirty hits
system.l2cache.WritebackDirty_accesses::.writebacks        12363                       # number of WritebackDirty accesses(hits+misses)
system.l2cache.WritebackDirty_accesses::total        12363                       # number of WritebackDirty accesses(hits+misses)
system.l2cache.CleanEvict_mshr_misses::.writebacks          364                       # number of CleanEvict MSHR misses
system.l2cache.CleanEvict_mshr_misses::total          364                       # number of CleanEvict MSHR misses
system.l2cache.CleanEvict_mshr_miss_rate::.writebacks          inf                       # mshr miss rate for CleanEvict accesses
system.l2cache.CleanEvict_mshr_miss_rate::total          inf                       # mshr miss rate for CleanEvict accesses
system.l2cache.HardPFReq_mshr_misses::.l2cache.prefetcher         6202                       # number of HardPFReq MSHR misses
system.l2cache.HardPFReq_mshr_misses::total         6202                       # number of HardPFReq MSHR misses
system.l2cache.HardPFReq_mshr_miss_latency::.l2cache.prefetcher    393867787                       # number of HardPFReq MSHR miss cycles
system.l2cache.HardPFReq_mshr_miss_latency::total    393867787                       # number of HardPFReq MSHR miss cycles
system.l2cache.HardPFReq_mshr_miss_rate::.l2cache.prefetcher          inf                       # mshr miss rate for HardPFReq accesses
system.l2cache.HardPFReq_mshr_miss_rate::total          inf                       # mshr miss rate for HardPFReq accesses
system.l2cache.HardPFReq_avg_mshr_miss_latency::.l2cache.prefetcher 63506.576427                       # average HardPFReq mshr miss latency
system.l2cache.HardPFReq_avg_mshr_miss_latency::total 63506.576427                       # average HardPFReq mshr miss latency
system.l2cache.ReadExReq_hits::.cpu.data          193                       # number of ReadExReq hits
system.l2cache.ReadExReq_hits::total              193                       # number of ReadExReq hits
system.l2cache.ReadExReq_misses::.cpu.data         5010                       # number of ReadExReq misses
system.l2cache.ReadExReq_misses::total           5010                       # number of ReadExReq misses
system.l2cache.ReadExReq_miss_latency::.cpu.data    378994800                       # number of ReadExReq miss cycles
system.l2cache.ReadExReq_miss_latency::total    378994800                       # number of ReadExReq miss cycles
system.l2cache.ReadExReq_accesses::.cpu.data         5203                       # number of ReadExReq accesses(hits+misses)
system.l2cache.ReadExReq_accesses::total         5203                       # number of ReadExReq accesses(hits+misses)
system.l2cache.ReadExReq_miss_rate::.cpu.data     0.962906                       # miss rate for ReadExReq accesses
system.l2cache.ReadExReq_miss_rate::total     0.962906                       # miss rate for ReadExReq accesses
system.l2cache.ReadExReq_avg_miss_latency::.cpu.data 75647.664671                       # average ReadExReq miss latency
system.l2cache.ReadExReq_avg_miss_latency::total 75647.664671                       # average ReadExReq miss latency
system.l2cache.ReadExReq_mshr_misses::.cpu.data         5010                       # number of ReadExReq MSHR misses
system.l2cache.ReadExReq_mshr_misses::total         5010                       # number of ReadExReq MSHR misses
system.l2cache.ReadExReq_mshr_miss_latency::.cpu.data    338914800                       # number of ReadExReq MSHR miss cycles
system.l2cache.ReadExReq_mshr_miss_latency::total    338914800                       # number of ReadExReq MSHR miss cycles
system.l2cache.ReadExReq_mshr_miss_rate::.cpu.data     0.962906                       # mshr miss rate for ReadExReq accesses
system.l2cache.ReadExReq_mshr_miss_rate::total     0.962906                       # mshr miss rate for ReadExReq accesses
system.l2cache.ReadExReq_avg_mshr_miss_latency::.cpu.data 67647.664671                       # average ReadExReq mshr miss latency
system.l2cache.ReadExReq_avg_mshr_miss_latency::total 67647.664671                       # average ReadExReq mshr miss latency
system.l2cache.ReadSharedReq_hits::.cpu.inst          407                       # number of ReadSharedReq hits
system.l2cache.ReadSharedReq_hits::.cpu.data         1520                       # number of ReadSharedReq hits
system.l2cache.ReadSharedReq_hits::.cpu.dcache.prefetcher         4343                       # number of ReadSharedReq hits
system.l2cache.ReadSharedReq_hits::total         6270                       # number of ReadSharedReq hits
system.l2cache.ReadSharedReq_misses::.cpu.inst          554                       # number of ReadSharedReq misses
system.l2cache.ReadSharedReq_misses::.cpu.data        25107                       # number of ReadSharedReq misses
system.l2cache.ReadSharedReq_misses::.cpu.dcache.prefetcher        32205                       # number of ReadSharedReq misses
system.l2cache.ReadSharedReq_misses::total        57866                       # number of ReadSharedReq misses
system.l2cache.ReadSharedReq_miss_latency::.cpu.inst     39224800                       # number of ReadSharedReq miss cycles
system.l2cache.ReadSharedReq_miss_latency::.cpu.data   1720213200                       # number of ReadSharedReq miss cycles
system.l2cache.ReadSharedReq_miss_latency::.cpu.dcache.prefetcher   2292409733                       # number of ReadSharedReq miss cycles
system.l2cache.ReadSharedReq_miss_latency::total   4051847733                       # number of ReadSharedReq miss cycles
system.l2cache.ReadSharedReq_accesses::.cpu.inst          961                       # number of ReadSharedReq accesses(hits+misses)
system.l2cache.ReadSharedReq_accesses::.cpu.data        26627                       # number of ReadSharedReq accesses(hits+misses)
system.l2cache.ReadSharedReq_accesses::.cpu.dcache.prefetcher        36548                       # number of ReadSharedReq accesses(hits+misses)
system.l2cache.ReadSharedReq_accesses::total        64136                       # number of ReadSharedReq accesses(hits+misses)
system.l2cache.ReadSharedReq_miss_rate::.cpu.inst     0.576483                       # miss rate for ReadSharedReq accesses
system.l2cache.ReadSharedReq_miss_rate::.cpu.data     0.942915                       # miss rate for ReadSharedReq accesses
system.l2cache.ReadSharedReq_miss_rate::.cpu.dcache.prefetcher     0.881170                       # miss rate for ReadSharedReq accesses
system.l2cache.ReadSharedReq_miss_rate::total     0.902239                       # miss rate for ReadSharedReq accesses
system.l2cache.ReadSharedReq_avg_miss_latency::.cpu.inst 70802.888087                       # average ReadSharedReq miss latency
system.l2cache.ReadSharedReq_avg_miss_latency::.cpu.data 68515.282591                       # average ReadSharedReq miss latency
system.l2cache.ReadSharedReq_avg_miss_latency::.cpu.dcache.prefetcher 71181.795777                       # average ReadSharedReq miss latency
system.l2cache.ReadSharedReq_avg_miss_latency::total 70021.216829                       # average ReadSharedReq miss latency
system.l2cache.ReadSharedReq_mshr_hits::.cpu.data            3                       # number of ReadSharedReq MSHR hits
system.l2cache.ReadSharedReq_mshr_hits::.cpu.dcache.prefetcher          162                       # number of ReadSharedReq MSHR hits
system.l2cache.ReadSharedReq_mshr_hits::total          165                       # number of ReadSharedReq MSHR hits
system.l2cache.ReadSharedReq_mshr_misses::.cpu.inst          554                       # number of ReadSharedReq MSHR misses
system.l2cache.ReadSharedReq_mshr_misses::.cpu.data        25104                       # number of ReadSharedReq MSHR misses
system.l2cache.ReadSharedReq_mshr_misses::.cpu.dcache.prefetcher        32043                       # number of ReadSharedReq MSHR misses
system.l2cache.ReadSharedReq_mshr_misses::total        57701                       # number of ReadSharedReq MSHR misses
system.l2cache.ReadSharedReq_mshr_miss_latency::.cpu.inst     34784800                       # number of ReadSharedReq MSHR miss cycles
system.l2cache.ReadSharedReq_mshr_miss_latency::.cpu.data   1519147600                       # number of ReadSharedReq MSHR miss cycles
system.l2cache.ReadSharedReq_mshr_miss_latency::.cpu.dcache.prefetcher   2030351113                       # number of ReadSharedReq MSHR miss cycles
system.l2cache.ReadSharedReq_mshr_miss_latency::total   3584283513                       # number of ReadSharedReq MSHR miss cycles
system.l2cache.ReadSharedReq_mshr_miss_rate::.cpu.inst     0.576483                       # mshr miss rate for ReadSharedReq accesses
system.l2cache.ReadSharedReq_mshr_miss_rate::.cpu.data     0.942802                       # mshr miss rate for ReadSharedReq accesses
system.l2cache.ReadSharedReq_mshr_miss_rate::.cpu.dcache.prefetcher     0.876737                       # mshr miss rate for ReadSharedReq accesses
system.l2cache.ReadSharedReq_mshr_miss_rate::total     0.899666                       # mshr miss rate for ReadSharedReq accesses
system.l2cache.ReadSharedReq_avg_mshr_miss_latency::.cpu.inst 62788.447653                       # average ReadSharedReq mshr miss latency
system.l2cache.ReadSharedReq_avg_mshr_miss_latency::.cpu.data 60514.165073                       # average ReadSharedReq mshr miss latency
system.l2cache.ReadSharedReq_avg_mshr_miss_latency::.cpu.dcache.prefetcher 63363.327810                       # average ReadSharedReq mshr miss latency
system.l2cache.ReadSharedReq_avg_mshr_miss_latency::total 62118.221747                       # average ReadSharedReq mshr miss latency
system.l2cache.prefetcher.pwrStateResidencyTicks::UNDEFINED   2500004000                       # Cumulative time (in ticks) in various power states
system.l2cache.tags.pwrStateResidencyTicks::UNDEFINED   2500004000                       # Cumulative time (in ticks) in various power states
system.l2cache.tags.tagsinuse                    4096                       # Cycle average of tags in use
system.l2cache.tags.total_refs                 151519                       # Total number of references to valid blocks.
system.l2cache.tags.sampled_refs                73038                       # Sample count of references to valid blocks.
system.l2cache.tags.avg_refs                 2.074523                       # Average number of references to valid blocks.
system.l2cache.tags.warmup_cycle                    0                       # Cycle when the warmup percentage was hit.
system.l2cache.tags.occ_blocks::.writebacks     0.333583                       # Average occupied blocks per requestor
system.l2cache.tags.occ_blocks::.cpu.inst    13.586720                       # Average occupied blocks per requestor
system.l2cache.tags.occ_blocks::.cpu.data  2181.422427                       # Average occupied blocks per requestor
system.l2cache.tags.occ_blocks::.cpu.dcache.prefetcher  1587.735211                       # Average occupied blocks per requestor
system.l2cache.tags.occ_blocks::.l2cache.prefetcher   312.922059                       # Average occupied blocks per requestor
system.l2cache.tags.occ_percent::.writebacks     0.000081                       # Average percentage of cache occupancy
system.l2cache.tags.occ_percent::.cpu.inst     0.003317                       # Average percentage of cache occupancy
system.l2cache.tags.occ_percent::.cpu.data     0.532574                       # Average percentage of cache occupancy
system.l2cache.tags.occ_percent::.cpu.dcache.prefetcher     0.387631                       # Average percentage of cache occupancy
system.l2cache.tags.occ_percent::.l2cache.prefetcher     0.076397                       # Average percentage of cache occupancy
system.l2cache.tags.occ_percent::total              1                       # Average percentage of cache occupancy
system.l2cache.tags.occ_task_id_blocks::1022           45                       # Occupied blocks per task id
system.l2cache.tags.occ_task_id_blocks::1024         4051                       # Occupied blocks per task id
system.l2cache.tags.age_task_id_blocks_1022::0           14                       # Occupied blocks per task id
system.l2cache.tags.age_task_id_blocks_1022::1           30                       # Occupied blocks per task id
system.l2cache.tags.age_task_id_blocks_1022::2            1                       # Occupied blocks per task id
system.l2cache.tags.age_task_id_blocks_1024::0          200                       # Occupied blocks per task id
system.l2cache.tags.age_task_id_blocks_1024::1         1405                       # Occupied blocks per task id
system.l2cache.tags.age_task_id_blocks_1024::2         2446                       # Occupied blocks per task id
system.l2cache.tags.occ_task_id_percent::1022     0.010986                       # Percentage of cache occupancy per task id
system.l2cache.tags.occ_task_id_percent::1024     0.989014                       # Percentage of cache occupancy per task id
system.l2cache.tags.tag_accesses              1178350                       # Number of tag accesses
system.l2cache.tags.data_accesses             1178350                       # Number of data accesses
system.mem_ctrl.pwrStateResidencyTicks::UNDEFINED   2500004000                       # Cumulative time (in ticks) in various power states
system.mem_ctrl.bytes_read::.cpu.inst           35520                       # Number of bytes read from this memory
system.mem_ctrl.bytes_read::.cpu.data         1927360                       # Number of bytes read from this memory
system.mem_ctrl.bytes_read::.cpu.dcache.prefetcher      2050752                       # Number of bytes read from this memory
system.mem_ctrl.bytes_read::.l2cache.prefetcher       396672                       # Number of bytes read from this memory
system.mem_ctrl.bytes_read::total             4410304                       # Number of bytes read from this memory
system.mem_ctrl.bytes_inst_read::.cpu.inst        35520                       # Number of instructions bytes read from this memory
system.mem_ctrl.bytes_inst_read::total          35520                       # Number of instructions bytes read from this memory
system.mem_ctrl.bytes_written::.writebacks       985856                       # Number of bytes written to this memory
system.mem_ctrl.bytes_written::total           985856                       # Number of bytes written to this memory
system.mem_ctrl.num_reads::.cpu.inst              555                       # Number of read requests responded to by this memory
system.mem_ctrl.num_reads::.cpu.data            30115                       # Number of read requests responded to by this memory
system.mem_ctrl.num_reads::.cpu.dcache.prefetcher        32043                       # Number of read requests responded to by this memory
system.mem_ctrl.num_reads::.l2cache.prefetcher         6198                       # Number of read requests responded to by this memory
system.mem_ctrl.num_reads::total                68911                       # Number of read requests responded to by this memory
system.mem_ctrl.num_writes::.writebacks         15404                       # Number of write requests responded to by this memory
system.mem_ctrl.num_writes::total               15404                       # Number of write requests responded to by this memory
system.mem_ctrl.bw_read::.cpu.inst           14207977                       # Total read bandwidth from this memory (bytes/s)
system.mem_ctrl.bw_read::.cpu.data          770942766                       # Total read bandwidth from this memory (bytes/s)
system.mem_ctrl.bw_read::.cpu.dcache.prefetcher    820299488                       # Total read bandwidth from this memory (bytes/s)
system.mem_ctrl.bw_read::.l2cache.prefetcher    158668546                       # Total read bandwidth from this memory (bytes/s)
system.mem_ctrl.bw_read::total             1764118777                       # Total read bandwidth from this memory (bytes/s)
system.mem_ctrl.bw_inst_read::.cpu.inst      14207977                       # Instruction read bandwidth from this memory (bytes/s)
system.mem_ctrl.bw_inst_read::total          14207977                       # Instruction read bandwidth from this memory (bytes/s)
system.mem_ctrl.bw_write::.writebacks       394341769                       # Write bandwidth from this memory (bytes/s)
system.mem_ctrl.bw_write::total             394341769                       # Write bandwidth from this memory (bytes/s)
system.mem_ctrl.bw_total::.writebacks       394341769                       # Total bandwidth to/from this memory (bytes/s)
system.mem_ctrl.bw_total::.cpu.inst          14207977                       # Total bandwidth to/from this memory (bytes/s)
system.mem_ctrl.bw_total::.cpu.data         770942766                       # Total bandwidth to/from this memory (bytes/s)
system.mem_ctrl.bw_total::.cpu.dcache.prefetcher    820299488                       # Total bandwidth to/from this memory (bytes/s)
system.mem_ctrl.bw_total::.l2cache.prefetcher    158668546                       # Total bandwidth to/from this memory (bytes/s)
system.mem_ctrl.bw_total::total            2158460546                       # Total bandwidth to/from this memory (bytes/s)

---------- End Simulation Statistics   ----------
