
---------- Begin Simulation Statistics ----------
final_tick                                 1103298800                       # Number of ticks from beginning of simulation (restored from checkpoints and never reset)
host_inst_rate                                 178669                       # Simulator instruction rate (inst/s)
host_mem_usage                                4408888                       # Number of bytes of host memory used
host_op_rate                                   311620                       # Simulator op (including micro ops) rate (op/s)
host_seconds                                    11.62                       # Real time elapsed on the host
host_tick_rate                               94981600                       # Simulator tick rate (ticks/s)
sim_freq                                 1000000000000                       # Frequency of simulated ticks
sim_insts                                     2075394                       # Number of instructions simulated
sim_ops                                       3619754                       # Number of ops (including micro ops) simulated
sim_seconds                                  0.001103                       # Number of seconds simulated
sim_ticks                                  1103298800                       # Number of ticks simulated
system.cpu.branchPred.BTBCorrect                    0                       # Number of correct BTB predictions (this stat may not work properly.
system.cpu.branchPred.BTBHitPct              0.000000                       # BTB Hit Percentage
system.cpu.branchPred.BTBHits                       0                       # Number of BTB hits
system.cpu.branchPred.BTBLookups               438841                       # Number of BTB lookups
system.cpu.branchPred.RASInCorrect                 15                       # Number of incorrect RAS predictions.
system.cpu.branchPred.condIncorrect             24160                       # Number of conditional branches incorrect
system.cpu.branchPred.condPredicted            466176                       # Number of conditional branches predicted
system.cpu.branchPred.indirectHits             241312                       # Number of indirect target hits.
system.cpu.branchPred.indirectLookups          438841                       # Number of indirect predictor lookups.
system.cpu.branchPred.indirectMisses           197529                       # Number of indirect misses.
system.cpu.branchPred.lookups                  493625                       # Number of BP lookups
system.cpu.branchPred.usedRAS                   11888                       # Number of times the RAS was used to get a target.
system.cpu.branchPredindirectMispredicted        12100                       # Number of mispredicted indirect branches.
system.cpu.cc_regfile_reads                   2379067                       # number of cc regfile reads
system.cpu.cc_regfile_writes                  1927963                       # number of cc regfile writes
system.cpu.commit.amos                              0                       # Number of atomic instructions committed
system.cpu.commit.branchMispredicts             24283                       # The number of times a branch was mispredicted
system.cpu.commit.branches                     350579                       # Number of branches committed
system.cpu.commit.bw_lim_events                603572                       # number cycles where commit BW limit reached
system.cpu.commit.commitNonSpecStalls             842                       # The number of times commit has been forced to stall to communicate backwards
system.cpu.commit.commitSquashedInsts          885325                       # The number of squashed insts skipped by commit
system.cpu.commit.committedInsts              2075394                       # Number of instructions committed
system.cpu.commit.committedOps                3619754                       # Number of ops (including micro ops) committed
system.cpu.commit.committed_per_cycle::samples      2348827                       # Number of insts commited each cycle
system.cpu.commit.committed_per_cycle::mean     1.541090                       # Number of insts commited each cycle
system.cpu.commit.committed_per_cycle::stdev     1.727188                       # Number of insts commited each cycle
system.cpu.commit.committed_per_cycle::underflows            0      0.00%      0.00% # Number of insts commited each cycle
system.cpu.commit.committed_per_cycle::0      1170505     49.83%     49.83% # Number of insts commited each cycle
system.cpu.commit.committed_per_cycle::1       174678      7.44%     57.27% # Number of insts commited each cycle
system.cpu.commit.committed_per_cycle::2       169428      7.21%     64.48% # Number of insts commited each cycle
system.cpu.commit.committed_per_cycle::3       230644      9.82%     74.30% # Number of insts commited each cycle
system.cpu.commit.committed_per_cycle::4       603572     25.70%    100.00% # Number of insts commited each cycle
system.cpu.commit.committed_per_cycle::overflows            0      0.00%    100.00% # Number of insts commited each cycle
system.cpu.commit.committed_per_cycle::min_value            0                       # Number of insts commited each cycle
system.cpu.commit.committed_per_cycle::max_value            4                       # Number of insts commited each cycle
system.cpu.commit.committed_per_cycle::total      2348827                       # Number of insts commited each cycle
system.cpu.commit.fp_insts                      75825                       # Number of committed floating point instructions.
system.cpu.commit.function_calls                10113                       # Number of function calls committed.
system.cpu.commit.int_insts                   3563683                       # Number of committed integer instructions.
system.cpu.commit.loads                        500512                       # Number of loads committed
system.cpu.commit.membars                           1                       # Number of memory barriers committed
system.cpu.commit.op_class_0::No_OpClass        20776      0.57%      0.57% # Class of committed instruction
system.cpu.commit.op_class_0::IntAlu          2842636     78.53%     79.11% # Class of committed instruction
system.cpu.commit.op_class_0::IntMult             129      0.00%     79.11% # Class of committed instruction
system.cpu.commit.op_class_0::IntDiv            37978      1.05%     80.16% # Class of committed instruction
system.cpu.commit.op_class_0::FloatAdd           2996      0.08%     80.24% # Class of committed instruction
system.cpu.commit.op_class_0::FloatCmp              0      0.00%     80.24% # Class of committed instruction
system.cpu.commit.op_class_0::FloatCvt           1376      0.04%     80.28% # Class of committed instruction
system.cpu.commit.op_class_0::FloatMult             0      0.00%     80.28% # Class of committed instruction
system.cpu.commit.op_class_0::FloatMultAcc            0      0.00%     80.28% # Class of committed instruction
system.cpu.commit.op_class_0::FloatDiv              0      0.00%     80.28% # Class of committed instruction
system.cpu.commit.op_class_0::FloatMisc             0      0.00%     80.28% # Class of committed instruction
system.cpu.commit.op_class_0::FloatSqrt             0      0.00%     80.28% # Class of committed instruction
system.cpu.commit.op_class_0::SimdAdd            6346      0.18%     80.45% # Class of committed instruction
system.cpu.commit.op_class_0::SimdAddAcc            0      0.00%     80.45% # Class of committed instruction
system.cpu.commit.op_class_0::SimdAlu           11415      0.32%     80.77% # Class of committed instruction
system.cpu.commit.op_class_0::SimdCmp               0      0.00%     80.77% # Class of committed instruction
system.cpu.commit.op_class_0::SimdCvt           12434      0.34%     81.11% # Class of committed instruction
system.cpu.commit.op_class_0::SimdMisc           6715      0.19%     81.30% # Class of committed instruction
system.cpu.commit.op_class_0::SimdMult              0      0.00%     81.30% # Class of committed instruction
system.cpu.commit.op_class_0::SimdMultAcc            0      0.00%     81.30% # Class of committed instruction
system.cpu.commit.op_class_0::SimdShift          1273      0.04%     81.33% # Class of committed instruction
system.cpu.commit.op_class_0::SimdShiftAcc            0      0.00%     81.33% # Class of committed instruction
system.cpu.commit.op_class_0::SimdDiv               0      0.00%     81.33% # Class of committed instruction
system.cpu.commit.op_class_0::SimdSqrt              0      0.00%     81.33% # Class of committed instruction
system.cpu.commit.op_class_0::SimdFloatAdd            0      0.00%     81.33% # Class of committed instruction
system.cpu.commit.op_class_0::SimdFloatAlu            0      0.00%     81.33% # Class of committed instruction
system.cpu.commit.op_class_0::SimdFloatCmp            0      0.00%     81.33% # Class of committed instruction
system.cpu.commit.op_class_0::SimdFloatCvt            0      0.00%     81.33% # Class of committed instruction
system.cpu.commit.op_class_0::SimdFloatDiv            0      0.00%     81.33% # Class of committed instruction
system.cpu.commit.op_class_0::SimdFloatMisc            0      0.00%     81.33% # Class of committed instruction
system.cpu.commit.op_class_0::SimdFloatMult            0      0.00%     81.33% # Class of committed instruction
system.cpu.commit.op_class_0::SimdFloatMultAcc            0      0.00%     81.33% # Class of committed instruction
system.cpu.commit.op_class_0::SimdFloatSqrt            0      0.00%     81.33% # Class of committed instruction
system.cpu.commit.op_class_0::SimdReduceAdd            0      0.00%     81.33% # Class of committed instruction
system.cpu.commit.op_class_0::SimdReduceAlu            0      0.00%     81.33% # Class of committed instruction
system.cpu.commit.op_class_0::SimdReduceCmp            0      0.00%     81.33% # Class of committed instruction
system.cpu.commit.op_class_0::SimdFloatReduceAdd            0      0.00%     81.33% # Class of committed instruction
system.cpu.commit.op_class_0::SimdFloatReduceCmp            0      0.00%     81.33% # Class of committed instruction
system.cpu.commit.op_class_0::SimdAes               0      0.00%     81.33% # Class of committed instruction
system.cpu.commit.op_class_0::SimdAesMix            0      0.00%     81.33% # Class of committed instruction
system.cpu.commit.op_class_0::SimdSha1Hash            0      0.00%     81.33% # Class of committed instruction
system.cpu.commit.op_class_0::SimdSha1Hash2            0      0.00%     81.33% # Class of committed instruction
system.cpu.commit.op_class_0::SimdSha256Hash            0      0.00%     81.33% # Class of committed instruction
system.cpu.commit.op_class_0::SimdSha256Hash2            0      0.00%     81.33% # Class of committed instruction
system.cpu.commit.op_class_0::SimdShaSigma2            0      0.00%     81.33% # Class of committed instruction
system.cpu.commit.op_class_0::SimdShaSigma3            0      0.00%     81.33% # Class of committed instruction
system.cpu.commit.op_class_0::SimdPredAlu            0      0.00%     81.33% # Class of committed instruction
system.cpu.commit.op_class_0::MemRead          480624     13.28%     94.61% # Class of committed instruction
system.cpu.commit.op_class_0::MemWrite         162669      4.49%     99.11% # Class of committed instruction
system.cpu.commit.op_class_0::FloatMemRead        19888      0.55%     99.65% # Class of committed instruction
system.cpu.commit.op_class_0::FloatMemWrite        12499      0.35%    100.00% # Class of committed instruction
system.cpu.commit.op_class_0::IprAccess             0      0.00%    100.00% # Class of committed instruction
system.cpu.commit.op_class_0::InstPrefetch            0      0.00%    100.00% # Class of committed instruction
system.cpu.commit.op_class_0::total           3619754                       # Class of committed instruction
system.cpu.commit.refs                         675680                       # Number of memory references committed
system.cpu.commit.swp_count                         0                       # Number of s/w prefetches committed
system.cpu.commit.vec_insts                         0                       # Number of committed Vector instructions.
system.cpu.committedInsts                     2075394                       # Number of Instructions Simulated
system.cpu.committedOps                       3619754                       # Number of Ops (including micro ops) Simulated
system.cpu.cpi                               1.329024                       # CPI: Cycles Per Instruction
system.cpu.cpi_total                         1.329024                       # CPI: Total CPI of All Threads
system.cpu.dcache.prefetcher.num_hwpf_issued         8232                       # number of hwpf issued
system.cpu.dcache.prefetcher.pfBufferHit        33354                       # number of redundant prefetches already in prefetch queue
system.cpu.dcache.prefetcher.pfIdentified        48529                       # number of prefetch candidates identified
system.cpu.dcache.prefetcher.pfInCache              0                       # number of redundant prefetches already in cache/mshr dropped
system.cpu.dcache.prefetcher.pfRemovedFull            0                       # number of prefetches dropped due to prefetch queue size
system.cpu.dcache.prefetcher.pfSpanPage          4719                       # number of prefetches that crossed the page
system.cpu.decode.BlockedCycles               1027444                       # Number of cycles decode is blocked
system.cpu.decode.DecodedInsts                4717514                       # Number of instructions handled by decode
system.cpu.decode.IdleCycles                   302251                       # Number of cycles decode is idle
system.cpu.decode.RunCycles                   1149554                       # Number of cycles decode is running
system.cpu.decode.SquashCycles                  24347                       # Number of cycles decode is squashing
system.cpu.decode.UnblockCycles                 86803                       # Number of cycles decode is unblocking
system.cpu.dtb.rdAccesses                      583645                       # TLB accesses on read requests
system.cpu.dtb.rdMisses                          2039                       # TLB misses on read requests
system.cpu.dtb.wrAccesses                      194346                       # TLB accesses on write requests
system.cpu.dtb.wrMisses                           170                       # TLB misses on write requests
system.cpu.fetch.Branches                      493625                       # Number of branches that fetch encountered
system.cpu.fetch.CacheLines                    243877                       # Number of cache lines fetched
system.cpu.fetch.Cycles                       2227098                       # Number of cycles fetch has run and was not squashing or blocked
system.cpu.fetch.IcacheSquashes                  5015                       # Number of outstanding Icache misses that were squashed
system.cpu.fetch.IcacheWaitRetryStallCycles           10                       # Number of stall cycles due to full MSHR
system.cpu.fetch.Insts                        2839427                       # Number of instructions fetch has processed
system.cpu.fetch.MiscStallCycles                  169                       # Number of cycles fetch has spent waiting on interrupts, or bad addresses, or out of MSHRs
system.cpu.fetch.PendingQuiesceStallCycles            9                       # Number of stall cycles due to pending quiesce instructions
system.cpu.fetch.PendingTrapStallCycles           965                       # Number of stall cycles due to pending traps
system.cpu.fetch.SquashCycles                   48694                       # Number of cycles fetch has spent squashing
system.cpu.fetch.branchRate                  0.178963                       # Number of branch fetches per cycle
system.cpu.fetch.icacheStallCycles             337801                       # Number of cycles fetch is stalled on an Icache miss
system.cpu.fetch.predictedBranches             253200                       # Number of branches that fetch has predicted taken
system.cpu.fetch.rate                        1.029431                       # Number of inst fetches per cycle
system.cpu.fetch.rateDist::samples            2590399                       # Number of instructions fetched each cycle (Total)
system.cpu.fetch.rateDist::mean              1.925589                       # Number of instructions fetched each cycle (Total)
system.cpu.fetch.rateDist::stdev             1.930247                       # Number of instructions fetched each cycle (Total)
system.cpu.fetch.rateDist::underflows               0      0.00%      0.00% # Number of instructions fetched each cycle (Total)
system.cpu.fetch.rateDist::0                  1238260     47.80%     47.80% # Number of instructions fetched each cycle (Total)
system.cpu.fetch.rateDist::1                    74312      2.87%     50.67% # Number of instructions fetched each cycle (Total)
system.cpu.fetch.rateDist::2                    59924      2.31%     52.98% # Number of instructions fetched each cycle (Total)
system.cpu.fetch.rateDist::3                    77727      3.00%     55.98% # Number of instructions fetched each cycle (Total)
system.cpu.fetch.rateDist::4                  1140176     44.02%    100.00% # Number of instructions fetched each cycle (Total)
system.cpu.fetch.rateDist::overflows                0      0.00%    100.00% # Number of instructions fetched each cycle (Total)
system.cpu.fetch.rateDist::min_value                0                       # Number of instructions fetched each cycle (Total)
system.cpu.fetch.rateDist::max_value                4                       # Number of instructions fetched each cycle (Total)
system.cpu.fetch.rateDist::total              2590399                       # Number of instructions fetched each cycle (Total)
system.cpu.fp_regfile_reads                    122202                       # number of floating regfile reads
system.cpu.fp_regfile_writes                    67550                       # number of floating regfile writes
system.cpu.fuPool.fu_ticks_busy::IntALU(0)    218138800                       # Total ticks fu was busy
system.cpu.fuPool.fu_ticks_busy::IntALU(1)    218138400                       # Total ticks fu was busy
system.cpu.fuPool.fu_ticks_busy::IntALU(2)    218138400                       # Total ticks fu was busy
system.cpu.fuPool.fu_ticks_busy::IntALU(3)    218138400                       # Total ticks fu was busy
system.cpu.fuPool.fu_ticks_busy::IntALU(4)    218138400                       # Total ticks fu was busy
system.cpu.fuPool.fu_ticks_busy::IntALU(5)    218138400                       # Total ticks fu was busy
system.cpu.fuPool.fu_ticks_busy::IntMultDiv(0)      8430400                       # Total ticks fu was busy
system.cpu.fuPool.fu_ticks_busy::IntMultDiv(1)      8430000                       # Total ticks fu was busy
system.cpu.fuPool.fu_ticks_busy::FP_ALU(0)       608800                       # Total ticks fu was busy
system.cpu.fuPool.fu_ticks_busy::FP_ALU(1)       608800                       # Total ticks fu was busy
system.cpu.fuPool.fu_ticks_busy::FP_ALU(2)       608400                       # Total ticks fu was busy
system.cpu.fuPool.fu_ticks_busy::FP_ALU(3)       608000                       # Total ticks fu was busy
system.cpu.fuPool.fu_ticks_busy::FP_MultDiv(0)            0                       # Total ticks fu was busy
system.cpu.fuPool.fu_ticks_busy::FP_MultDiv(1)            0                       # Total ticks fu was busy
system.cpu.fuPool.fu_ticks_busy::SIMD_Unit(0)      4563200                       # Total ticks fu was busy
system.cpu.fuPool.fu_ticks_busy::SIMD_Unit(1)      4609600                       # Total ticks fu was busy
system.cpu.fuPool.fu_ticks_busy::SIMD_Unit(2)      4579200                       # Total ticks fu was busy
system.cpu.fuPool.fu_ticks_busy::SIMD_Unit(3)      4540400                       # Total ticks fu was busy
system.cpu.fuPool.fu_ticks_busy::PredALU(0)            0                       # Total ticks fu was busy
system.cpu.fuPool.fu_ticks_busy::RdWrPort(0)     79234400                       # Total ticks fu was busy
system.cpu.fuPool.fu_ticks_busy::RdWrPort(1)     79278400                       # Total ticks fu was busy
system.cpu.fuPool.fu_ticks_busy::RdWrPort(2)     79254000                       # Total ticks fu was busy
system.cpu.fuPool.fu_ticks_busy::RdWrPort(3)     79276400                       # Total ticks fu was busy
system.cpu.fuPool.fu_ticks_busy::IprPort(0)            0                       # Total ticks fu was busy
system.cpu.fuPool.fu_ticks_busy::total     1663460800                       # Total ticks fu was busy
system.cpu.icache.prefetcher.num_hwpf_issued            0                       # number of hwpf issued
system.cpu.icache.prefetcher.pfBufferHit            0                       # number of redundant prefetches already in prefetch queue
system.cpu.icache.prefetcher.pfIdentified            0                       # number of prefetch candidates identified
system.cpu.icache.prefetcher.pfInCache              0                       # number of redundant prefetches already in cache/mshr dropped
system.cpu.icache.prefetcher.pfRemovedFull            0                       # number of prefetches dropped due to prefetch queue size
system.cpu.icache.prefetcher.pfSpanPage             0                       # number of prefetches that crossed the page
system.cpu.idleCycles                          167849                       # Total number of cycles that the CPU has spent unscheduled due to idling
system.cpu.iew.branchMispredicts                28677                       # Number of branch mispredicts detected at execute
system.cpu.iew.exec_branches                   380867                       # Number of branches executed
system.cpu.iew.exec_nop                             0                       # number of nop insts executed
system.cpu.iew.exec_rate                     1.505077                       # Inst execution rate
system.cpu.iew.exec_refs                       779695                       # number of memory reference insts executed
system.cpu.iew.exec_stores                     194331                       # Number of stores executed
system.cpu.iew.exec_swp                             0                       # number of swp insts executed
system.cpu.iew.iewBlockCycles                  702047                       # Number of cycles IEW is blocking
system.cpu.iew.iewDispLoadInsts                616316                       # Number of dispatched load instructions
system.cpu.iew.iewDispNonSpecInsts               1119                       # Number of dispatched non-speculative instructions
system.cpu.iew.iewDispSquashedInsts               543                       # Number of squashed instructions skipped by dispatch
system.cpu.iew.iewDispStoreInsts               204914                       # Number of dispatched store instructions
system.cpu.iew.iewDispatchedInsts             4505020                       # Number of instructions dispatched to IQ
system.cpu.iew.iewExecLoadInsts                585364                       # Number of load instructions executed
system.cpu.iew.iewExecSquashedInsts             34297                       # Number of squashed instructions skipped in execute
system.cpu.iew.iewExecutedInsts               4151376                       # Number of executed instructions
system.cpu.iew.iewIQFullEvents                   3334                       # Number of times the IQ has become full, causing a stall
system.cpu.iew.iewIdleCycles                        0                       # Number of cycles IEW is idle
system.cpu.iew.iewLSQFullEvents                 10143                       # Number of times the LSQ has become full, causing a stall
system.cpu.iew.iewSquashCycles                  24347                       # Number of cycles IEW is squashing
system.cpu.iew.iewUnblockCycles                 16359                       # Number of cycles IEW is unblocking
system.cpu.iew.lsq.thread0.blockedLoads             0                       # Number of blocked loads due to partial load-store forwarding
system.cpu.iew.lsq.thread0.cacheBlocked           592                       # Number of times an access to memory failed due to the cache being blocked
system.cpu.iew.lsq.thread0.forwLoads            39280                       # Number of loads that had data forwarded from stores
system.cpu.iew.lsq.thread0.ignoredResponses          249                       # Number of memory responses ignored because the instruction is squashed
system.cpu.iew.lsq.thread0.invAddrLoads             0                       # Number of loads ignored due to an invalid address
system.cpu.iew.lsq.thread0.invAddrSwpfs             0                       # Number of software prefetches ignored due to an invalid address
system.cpu.iew.lsq.thread0.memOrderViolation           73                       # Number of memory ordering violations
system.cpu.iew.lsq.thread0.rescheduledLoads            0                       # Number of loads that were rescheduled
system.cpu.iew.lsq.thread0.squashedLoads       115802                       # Number of loads squashed
system.cpu.iew.lsq.thread0.squashedStores        29745                       # Number of stores squashed
system.cpu.iew.memOrderViolationEvents             73                       # Number of memory order violations
system.cpu.iew.predictedNotTakenIncorrect        20410                       # Number of branches that were predicted not taken incorrectly
system.cpu.iew.predictedTakenIncorrect           8267                       # Number of branches that were predicted taken incorrectly
system.cpu.iew.wb_consumers                   5790803                       # num instructions consuming a value
system.cpu.iew.wb_count                       4129049                       # cumulative count of insts written-back
system.cpu.iew.wb_fanout                     0.568154                       # average fanout of values written-back
system.cpu.iew.wb_producers                   3290069                       # num instructions producing a value
system.cpu.iew.wb_rate                       1.496983                       # insts written-back per cycle
system.cpu.iew.wb_sent                        4135982                       # cumulative count of insts sent to commit
system.cpu.int_regfile_reads                  6427202                       # number of integer regfile reads
system.cpu.int_regfile_writes                 3561725                       # number of integer regfile writes
system.cpu.ipc                               0.752432                       # IPC: Instructions Per Cycle
system.cpu.ipc_total                         0.752432                       # IPC: Total IPC of All Threads
system.cpu.iq.FU_type_0::No_OpClass             27021      0.65%      0.65% # Type of FU issued
system.cpu.iq.FU_type_0::IntAlu               3272078     78.17%     78.82% # Type of FU issued
system.cpu.iq.FU_type_0::IntMult                  154      0.00%     78.82% # Type of FU issued
system.cpu.iq.FU_type_0::IntDiv                 41997      1.00%     79.83% # Type of FU issued
system.cpu.iq.FU_type_0::FloatAdd                4659      0.11%     79.94% # Type of FU issued
system.cpu.iq.FU_type_0::FloatCmp                   0      0.00%     79.94% # Type of FU issued
system.cpu.iq.FU_type_0::FloatCvt                1426      0.03%     79.97% # Type of FU issued
system.cpu.iq.FU_type_0::FloatMult                  0      0.00%     79.97% # Type of FU issued
system.cpu.iq.FU_type_0::FloatMultAcc               0      0.00%     79.97% # Type of FU issued
system.cpu.iq.FU_type_0::FloatDiv                   0      0.00%     79.97% # Type of FU issued
system.cpu.iq.FU_type_0::FloatMisc                  0      0.00%     79.97% # Type of FU issued
system.cpu.iq.FU_type_0::FloatSqrt                  0      0.00%     79.97% # Type of FU issued
system.cpu.iq.FU_type_0::SimdAdd                 6939      0.17%     80.14% # Type of FU issued
system.cpu.iq.FU_type_0::SimdAddAcc                 0      0.00%     80.14% # Type of FU issued
system.cpu.iq.FU_type_0::SimdAlu                14978      0.36%     80.49% # Type of FU issued
system.cpu.iq.FU_type_0::SimdCmp                    0      0.00%     80.49% # Type of FU issued
system.cpu.iq.FU_type_0::SimdCvt                14097      0.34%     80.83% # Type of FU issued
system.cpu.iq.FU_type_0::SimdMisc                7264      0.17%     81.01% # Type of FU issued
system.cpu.iq.FU_type_0::SimdMult                   0      0.00%     81.01% # Type of FU issued
system.cpu.iq.FU_type_0::SimdMultAcc                0      0.00%     81.01% # Type of FU issued
system.cpu.iq.FU_type_0::SimdShift               2453      0.06%     81.06% # Type of FU issued
system.cpu.iq.FU_type_0::SimdShiftAcc               0      0.00%     81.06% # Type of FU issued
system.cpu.iq.FU_type_0::SimdDiv                    0      0.00%     81.06% # Type of FU issued
system.cpu.iq.FU_type_0::SimdSqrt                   0      0.00%     81.06% # Type of FU issued
system.cpu.iq.FU_type_0::SimdFloatAdd               0      0.00%     81.06% # Type of FU issued
system.cpu.iq.FU_type_0::SimdFloatAlu               0      0.00%     81.06% # Type of FU issued
system.cpu.iq.FU_type_0::SimdFloatCmp               0      0.00%     81.06% # Type of FU issued
system.cpu.iq.FU_type_0::SimdFloatCvt               0      0.00%     81.06% # Type of FU issued
system.cpu.iq.FU_type_0::SimdFloatDiv               0      0.00%     81.06% # Type of FU issued
system.cpu.iq.FU_type_0::SimdFloatMisc              0      0.00%     81.06% # Type of FU issued
system.cpu.iq.FU_type_0::SimdFloatMult              0      0.00%     81.06% # Type of FU issued
system.cpu.iq.FU_type_0::SimdFloatMultAcc            0      0.00%     81.06% # Type of FU issued
system.cpu.iq.FU_type_0::SimdFloatSqrt              0      0.00%     81.06% # Type of FU issued
system.cpu.iq.FU_type_0::SimdReduceAdd              0      0.00%     81.06% # Type of FU issued
system.cpu.iq.FU_type_0::SimdReduceAlu              0      0.00%     81.06% # Type of FU issued
system.cpu.iq.FU_type_0::SimdReduceCmp              0      0.00%     81.06% # Type of FU issued
system.cpu.iq.FU_type_0::SimdFloatReduceAdd            0      0.00%     81.06% # Type of FU issued
system.cpu.iq.FU_type_0::SimdFloatReduceCmp            0      0.00%     81.06% # Type of FU issued
system.cpu.iq.FU_type_0::SimdAes                    0      0.00%     81.06% # Type of FU issued
system.cpu.iq.FU_type_0::SimdAesMix                 0      0.00%     81.06% # Type of FU issued
system.cpu.iq.FU_type_0::SimdSha1Hash               0      0.00%     81.06% # Type of FU issued
system.cpu.iq.FU_type_0::SimdSha1Hash2              0      0.00%     81.06% # Type of FU issued
system.cpu.iq.FU_type_0::SimdSha256Hash             0      0.00%     81.06% # Type of FU issued
system.cpu.iq.FU_type_0::SimdSha256Hash2            0      0.00%     81.06% # Type of FU issued
system.cpu.iq.FU_type_0::SimdShaSigma2              0      0.00%     81.06% # Type of FU issued
system.cpu.iq.FU_type_0::SimdShaSigma3              0      0.00%     81.06% # Type of FU issued
system.cpu.iq.FU_type_0::SimdPredAlu                0      0.00%     81.06% # Type of FU issued
system.cpu.iq.FU_type_0::MemRead               569770     13.61%     94.68% # Type of FU issued
system.cpu.iq.FU_type_0::MemWrite              183453      4.38%     99.06% # Type of FU issued
system.cpu.iq.FU_type_0::FloatMemRead           25800      0.62%     99.68% # Type of FU issued
system.cpu.iq.FU_type_0::FloatMemWrite          13587      0.32%    100.00% # Type of FU issued
system.cpu.iq.FU_type_0::IprAccess                  0      0.00%    100.00% # Type of FU issued
system.cpu.iq.FU_type_0::InstPrefetch               0      0.00%    100.00% # Type of FU issued
system.cpu.iq.FU_type_0::total                4185676                       # Type of FU issued
system.cpu.iq.fp_alu_accesses                   92276                       # Number of floating point alu accesses
system.cpu.iq.fp_inst_queue_reads              185917                       # Number of floating instruction queue reads
system.cpu.iq.fp_inst_queue_wakeup_accesses        88807                       # Number of floating instruction queue wakeup accesses
system.cpu.iq.fp_inst_queue_writes             134169                       # Number of floating instruction queue writes
system.cpu.iq.fu_busy_cnt                           0                       # FU busy when requested
system.cpu.iq.fu_busy_rate                          0                       # FU busy rate (busy events/executed inst)
system.cpu.iq.fu_full::No_OpClass                   0                       # attempts to use FU when none available
system.cpu.iq.fu_full::IntAlu                       0                       # attempts to use FU when none available
system.cpu.iq.fu_full::IntMult                      0                       # attempts to use FU when none available
system.cpu.iq.fu_full::IntDiv                       0                       # attempts to use FU when none available
system.cpu.iq.fu_full::FloatAdd                     0                       # attempts to use FU when none available
system.cpu.iq.fu_full::FloatCmp                     0                       # attempts to use FU when none available
system.cpu.iq.fu_full::FloatCvt                     0                       # attempts to use FU when none available
system.cpu.iq.fu_full::FloatMult                    0                       # attempts to use FU when none available
system.cpu.iq.fu_full::FloatMultAcc                 0                       # attempts to use FU when none available
system.cpu.iq.fu_full::FloatDiv                     0                       # attempts to use FU when none available
system.cpu.iq.fu_full::FloatMisc                    0                       # attempts to use FU when none available
system.cpu.iq.fu_full::FloatSqrt                    0                       # attempts to use FU when none available
system.cpu.iq.fu_full::SimdAdd                      0                       # attempts to use FU when none available
system.cpu.iq.fu_full::SimdAddAcc                   0                       # attempts to use FU when none available
system.cpu.iq.fu_full::SimdAlu                      0                       # attempts to use FU when none available
system.cpu.iq.fu_full::SimdCmp                      0                       # attempts to use FU when none available
system.cpu.iq.fu_full::SimdCvt                      0                       # attempts to use FU when none available
system.cpu.iq.fu_full::SimdMisc                     0                       # attempts to use FU when none available
system.cpu.iq.fu_full::SimdMult                     0                       # attempts to use FU when none available
system.cpu.iq.fu_full::SimdMultAcc                  0                       # attempts to use FU when none available
system.cpu.iq.fu_full::SimdShift                    0                       # attempts to use FU when none available
system.cpu.iq.fu_full::SimdShiftAcc                 0                       # attempts to use FU when none available
system.cpu.iq.fu_full::SimdDiv                      0                       # attempts to use FU when none available
system.cpu.iq.fu_full::SimdSqrt                     0                       # attempts to use FU when none available
system.cpu.iq.fu_full::SimdFloatAdd                 0                       # attempts to use FU when none available
system.cpu.iq.fu_full::SimdFloatAlu                 0                       # attempts to use FU when none available
system.cpu.iq.fu_full::SimdFloatCmp                 0                       # attempts to use FU when none available
system.cpu.iq.fu_full::SimdFloatCvt                 0                       # attempts to use FU when none available
system.cpu.iq.fu_full::SimdFloatDiv                 0                       # attempts to use FU when none available
system.cpu.iq.fu_full::SimdFloatMisc                0                       # attempts to use FU when none available
system.cpu.iq.fu_full::SimdFloatMult                0                       # attempts to use FU when none available
system.cpu.iq.fu_full::SimdFloatMultAcc             0                       # attempts to use FU when none available
system.cpu.iq.fu_full::SimdFloatSqrt                0                       # attempts to use FU when none available
system.cpu.iq.fu_full::SimdReduceAdd                0                       # attempts to use FU when none available
system.cpu.iq.fu_full::SimdReduceAlu                0                       # attempts to use FU when none available
system.cpu.iq.fu_full::SimdReduceCmp                0                       # attempts to use FU when none available
system.cpu.iq.fu_full::SimdFloatReduceAdd            0                       # attempts to use FU when none available
system.cpu.iq.fu_full::SimdFloatReduceCmp            0                       # attempts to use FU when none available
system.cpu.iq.fu_full::SimdAes                      0                       # attempts to use FU when none available
system.cpu.iq.fu_full::SimdAesMix                   0                       # attempts to use FU when none available
system.cpu.iq.fu_full::SimdSha1Hash                 0                       # attempts to use FU when none available
system.cpu.iq.fu_full::SimdSha1Hash2                0                       # attempts to use FU when none available
system.cpu.iq.fu_full::SimdSha256Hash               0                       # attempts to use FU when none available
system.cpu.iq.fu_full::SimdSha256Hash2              0                       # attempts to use FU when none available
system.cpu.iq.fu_full::SimdShaSigma2                0                       # attempts to use FU when none available
system.cpu.iq.fu_full::SimdShaSigma3                0                       # attempts to use FU when none available
system.cpu.iq.fu_full::SimdPredAlu                  0                       # attempts to use FU when none available
system.cpu.iq.fu_full::MemRead                      0                       # attempts to use FU when none available
system.cpu.iq.fu_full::MemWrite                     0                       # attempts to use FU when none available
system.cpu.iq.fu_full::FloatMemRead                 0                       # attempts to use FU when none available
system.cpu.iq.fu_full::FloatMemWrite                0                       # attempts to use FU when none available
system.cpu.iq.fu_full::IprAccess                    0                       # attempts to use FU when none available
system.cpu.iq.fu_full::InstPrefetch                 0                       # attempts to use FU when none available
system.cpu.iq.int_alu_accesses                4066379                       # Number of integer alu accesses
system.cpu.iq.int_inst_queue_reads           10794193                       # Number of integer instruction queue reads
system.cpu.iq.int_inst_queue_wakeup_accesses      4040242                       # Number of integer instruction queue wakeup accesses
system.cpu.iq.int_inst_queue_writes           5256179                       # Number of integer instruction queue writes
system.cpu.iq.iqInstsAdded                    4503570                       # Number of instructions added to the IQ (excludes non-spec)
system.cpu.iq.iqInstsIssued                   4185676                       # Number of instructions issued
system.cpu.iq.iqNonSpecInstsAdded                1450                       # Number of non-speculative instructions added to the IQ
system.cpu.iq.iqSquashedInstsExamined          885255                       # Number of squashed instructions iterated over during squash; mainly for profiling
system.cpu.iq.iqSquashedInstsIssued             18362                       # Number of squashed instructions issued
system.cpu.iq.iqSquashedNonSpecRemoved            608                       # Number of squashed non-spec instructions that were removed
system.cpu.iq.iqSquashedOperandsExamined      1313997                       # Number of squashed operands that are examined and possibly removed from graph
system.cpu.iq.issued_per_cycle::samples       2590399                       # Number of insts issued each cycle
system.cpu.iq.issued_per_cycle::mean         1.615842                       # Number of insts issued each cycle
system.cpu.iq.issued_per_cycle::stdev        1.672130                       # Number of insts issued each cycle
system.cpu.iq.issued_per_cycle::underflows            0      0.00%      0.00% # Number of insts issued each cycle
system.cpu.iq.issued_per_cycle::0             1180037     45.55%     45.55% # Number of insts issued each cycle
system.cpu.iq.issued_per_cycle::1              171886      6.64%     52.19% # Number of insts issued each cycle
system.cpu.iq.issued_per_cycle::2              299745     11.57%     63.76% # Number of insts issued each cycle
system.cpu.iq.issued_per_cycle::3              340624     13.15%     76.91% # Number of insts issued each cycle
system.cpu.iq.issued_per_cycle::4              598107     23.09%    100.00% # Number of insts issued each cycle
system.cpu.iq.issued_per_cycle::overflows            0      0.00%    100.00% # Number of insts issued each cycle
system.cpu.iq.issued_per_cycle::min_value            0                       # Number of insts issued each cycle
system.cpu.iq.issued_per_cycle::max_value            4                       # Number of insts issued each cycle
system.cpu.iq.issued_per_cycle::total         2590399                       # Number of insts issued each cycle
system.cpu.iq.rate                           1.517513                       # Inst issue rate
system.cpu.iq.vec_alu_accesses                      0                       # Number of vector alu accesses
system.cpu.iq.vec_inst_queue_reads                  0                       # Number of vector instruction queue reads
system.cpu.iq.vec_inst_queue_wakeup_accesses            0                       # Number of vector instruction queue wakeup accesses
system.cpu.iq.vec_inst_queue_writes                 0                       # Number of vector instruction queue writes
system.cpu.itb.rdAccesses                           0                       # TLB accesses on read requests
system.cpu.itb.rdMisses                             0                       # TLB misses on read requests
system.cpu.itb.wrAccesses                      244020                       # TLB accesses on write requests
system.cpu.itb.wrMisses                           404                       # TLB misses on write requests
system.cpu.memDep0.conflictingLoads              8324                       # Number of conflicting loads.
system.cpu.memDep0.conflictingStores             2999                       # Number of conflicting stores.
system.cpu.memDep0.insertedLoads               616316                       # Number of loads inserted to the mem dependence unit.
system.cpu.memDep0.insertedStores              204914                       # Number of stores inserted to the mem dependence unit.
system.cpu.misc_regfile_reads                 1576205                       # number of misc regfile reads
system.cpu.misc_regfile_writes                    774                       # number of misc regfile writes
system.cpu.numCycles                          2758248                       # number of cpu cycles simulated
system.cpu.numWorkItemsCompleted                    0                       # number of work items this cpu completed
system.cpu.numWorkItemsStarted                      0                       # number of work items this cpu started
system.cpu.process.numSyscalls                     67                       # Number of system calls
system.cpu.rename.BlockCycles                  846077                       # Number of cycles rename is blocking
system.cpu.rename.CommittedMaps               4933139                       # Number of HB maps that are committed
system.cpu.rename.FullRegisterEvents               19                       # Number of times there has been no free registers
system.cpu.rename.IQFullEvents                  43696                       # Number of times rename has blocked due to IQ full
system.cpu.rename.IdleCycles                   351350                       # Number of cycles rename is idle
system.cpu.rename.LQFullEvents                  15237                       # Number of times rename has blocked due to LQ full
system.cpu.rename.ROBFullEvents                  6020                       # Number of times rename has blocked due to ROB full
system.cpu.rename.RenameLookups              12125072                       # Number of register rename lookups that rename has made
system.cpu.rename.RenamedInsts                4643487                       # Number of instructions processed by rename
system.cpu.rename.RenamedOperands             6317845                       # Number of destination operands rename has renamed
system.cpu.rename.RunCycles                   1178945                       # Number of cycles rename is running
system.cpu.rename.SQFullEvents                  72591                       # Number of times rename has blocked due to SQ full
system.cpu.rename.SquashCycles                  24347                       # Number of cycles rename is squashing
system.cpu.rename.UnblockCycles                168217                       # Number of cycles rename is unblocking
system.cpu.rename.UndoneMaps                  1384683                       # Number of HB maps that are undone due to squashing
system.cpu.rename.fp_rename_lookups            158611                       # Number of floating rename lookups
system.cpu.rename.int_rename_lookups          7360689                       # Number of integer rename lookups
system.cpu.rename.serializeStallCycles          21463                       # count of cycles rename stalled for serializing inst
system.cpu.rename.serializingInsts                988                       # count of serializing insts renamed
system.cpu.rename.skidInsts                    200823                       # count of insts added to the skid buffer
system.cpu.rename.tempSerializingInsts           1047                       # count of temporary serializing insts renamed
system.cpu.rob.rob_reads                      6250334                       # The number of ROB reads
system.cpu.rob.rob_writes                     9252669                       # The number of ROB writes
system.cpu.timesIdled                            1723                       # Number of times that the entire CPU went into an idle state and unscheduled itself
system.l2bus.snoop_filter.hit_multi_requests           17                       # Number of requests hitting in the snoop filter with multiple (>1) holders of the requested data.
system.l2bus.snoop_filter.hit_multi_snoops            0                       # Number of snoops hitting in the snoop filter with multiple (>1) holders of the requested data.
system.l2bus.snoop_filter.hit_single_requests        18906                       # Number of requests hitting in the snoop filter with a single holder of the requested data.
system.l2bus.snoop_filter.hit_single_snoops          434                       # Number of snoops hitting in the snoop filter with a single holder of the requested data.
system.l2bus.snoop_filter.tot_requests          39092                       # Total number of requests made to the snoop filter.
system.l2bus.snoop_filter.tot_snoops              434                       # Total number of snoops made to the snoop filter.
system.l2cache.prefetcher.num_hwpf_issued          633                       # number of hwpf issued
system.l2cache.prefetcher.pfBufferHit               0                       # number of redundant prefetches already in prefetch queue
system.l2cache.prefetcher.pfIdentified            633                       # number of prefetch candidates identified
system.l2cache.prefetcher.pfInCache                 0                       # number of redundant prefetches already in cache/mshr dropped
system.l2cache.prefetcher.pfRemovedFull             0                       # number of prefetches dropped due to prefetch queue size
system.l2cache.prefetcher.pfSpanPage               99                       # number of prefetches that crossed the page
system.membus.snoop_filter.hit_multi_requests            0                       # Number of requests hitting in the snoop filter with multiple (>1) holders of the requested data.
system.membus.snoop_filter.hit_multi_snoops            0                       # Number of snoops hitting in the snoop filter with multiple (>1) holders of the requested data.
system.membus.snoop_filter.hit_single_requests         9530                       # Number of requests hitting in the snoop filter with a single holder of the requested data.
system.membus.snoop_filter.hit_single_snoops            0                       # Number of snoops hitting in the snoop filter with a single holder of the requested data.
system.membus.snoop_filter.tot_requests         23187                       # Total number of requests made to the snoop filter.
system.membus.snoop_filter.tot_snoops               0                       # Total number of snoops made to the snoop filter.
system.membus.pwrStateResidencyTicks::UNDEFINED   1103298800                       # Cumulative time (in ticks) in various power states
system.membus.trans_dist::ReadResp              12345                       # Transaction distribution
system.membus.trans_dist::WritebackDirty         1359                       # Transaction distribution
system.membus.trans_dist::CleanEvict             8171                       # Transaction distribution
system.membus.trans_dist::ReadExReq              1312                       # Transaction distribution
system.membus.trans_dist::ReadExResp             1312                       # Transaction distribution
system.membus.trans_dist::ReadSharedReq         12345                       # Transaction distribution
system.membus.pkt_count_system.l2cache.mem_side::system.mem_ctrl.port        36844                       # Packet count per connected master and slave (bytes)
system.membus.pkt_count_system.l2cache.mem_side::total        36844                       # Packet count per connected master and slave (bytes)
system.membus.pkt_count::total                  36844                       # Packet count per connected master and slave (bytes)
system.membus.pkt_size_system.l2cache.mem_side::system.mem_ctrl.port       961024                       # Cumulative packet size per connected master and slave (bytes)
system.membus.pkt_size_system.l2cache.mem_side::total       961024                       # Cumulative packet size per connected master and slave (bytes)
system.membus.pkt_size::total                  961024                       # Cumulative packet size per connected master and slave (bytes)
system.membus.snoops                                0                       # Total snoops (count)
system.membus.snoopTraffic                          0                       # Total snoop traffic (bytes)
system.membus.snoop_fanout::samples             13657                       # Request fanout histogram
system.membus.snoop_fanout::mean                    0                       # Request fanout histogram
system.membus.snoop_fanout::stdev                   0                       # Request fanout histogram
system.membus.snoop_fanout::underflows              0      0.00%      0.00% # Request fanout histogram
system.membus.snoop_fanout::0                   13657    100.00%    100.00% # Request fanout histogram
system.membus.snoop_fanout::1                       0      0.00%    100.00% # Request fanout histogram
system.membus.snoop_fanout::overflows               0      0.00%    100.00% # Request fanout histogram
system.membus.snoop_fanout::min_value               0                       # Request fanout histogram
system.membus.snoop_fanout::max_value               0                       # Request fanout histogram
system.membus.snoop_fanout::total               13657                       # Request fanout histogram
system.membus.reqLayer2.occupancy            11472151                       # Layer occupancy (ticks)
system.membus.reqLayer2.utilization               1.0                       # Layer utilization (%)
system.membus.respLayer0.occupancy           29646849                       # Layer occupancy (ticks)
system.membus.respLayer0.utilization              2.7                       # Layer utilization (%)
system.l2bus.pwrStateResidencyTicks::UNDEFINED   1103298800                       # Cumulative time (in ticks) in various power states
system.l2bus.trans_dist::ReadResp               18135                       # Transaction distribution
system.l2bus.trans_dist::WritebackDirty          4153                       # Transaction distribution
system.l2bus.trans_dist::CleanEvict             24374                       # Transaction distribution
system.l2bus.trans_dist::HardPFReq                925                       # Transaction distribution
system.l2bus.trans_dist::ReadExReq               2051                       # Transaction distribution
system.l2bus.trans_dist::ReadExResp              2051                       # Transaction distribution
system.l2bus.trans_dist::ReadSharedReq          18135                       # Transaction distribution
system.l2bus.pkt_count_system.cpu.icache.mem_side::system.l2cache.cpu_side         8886                       # Packet count per connected master and slave (bytes)
system.l2bus.pkt_count_system.cpu.dcache.mem_side::system.l2cache.cpu_side        50390                       # Packet count per connected master and slave (bytes)
system.l2bus.pkt_count::total                   59276                       # Packet count per connected master and slave (bytes)
system.l2bus.pkt_size_system.cpu.icache.mem_side::system.l2cache.cpu_side       194944                       # Cumulative packet size per connected master and slave (bytes)
system.l2bus.pkt_size_system.cpu.dcache.mem_side::system.l2cache.cpu_side      1275648                       # Cumulative packet size per connected master and slave (bytes)
system.l2bus.pkt_size::total                  1470592                       # Cumulative packet size per connected master and slave (bytes)
system.l2bus.snoops                             10548                       # Total snoops (count)
system.l2bus.snoopTraffic                       87104                       # Total snoop traffic (bytes)
system.l2bus.snoop_fanout::samples              30732                       # Request fanout histogram
system.l2bus.snoop_fanout::mean              0.014675                       # Request fanout histogram
system.l2bus.snoop_fanout::stdev             0.120251                       # Request fanout histogram
system.l2bus.snoop_fanout::underflows               0      0.00%      0.00% # Request fanout histogram
system.l2bus.snoop_fanout::0                    30281     98.53%     98.53% # Request fanout histogram
system.l2bus.snoop_fanout::1                      451      1.47%    100.00% # Request fanout histogram
system.l2bus.snoop_fanout::2                        0      0.00%    100.00% # Request fanout histogram
system.l2bus.snoop_fanout::overflows                0      0.00%    100.00% # Request fanout histogram
system.l2bus.snoop_fanout::min_value                0                       # Request fanout histogram
system.l2bus.snoop_fanout::max_value                1                       # Request fanout histogram
system.l2bus.snoop_fanout::total                30732                       # Request fanout histogram
system.l2bus.respLayer1.occupancy            20566398                       # Layer occupancy (ticks)
system.l2bus.respLayer1.utilization               1.9                       # Layer utilization (%)
system.l2bus.reqLayer0.occupancy             19325789                       # Layer occupancy (ticks)
system.l2bus.reqLayer0.utilization                1.8                       # Layer utilization (%)
system.l2bus.respLayer0.occupancy             3657999                       # Layer occupancy (ticks)
system.l2bus.respLayer0.utilization               0.3                       # Layer utilization (%)
system.clk_domain.clock                           400                       # Clock period in ticks
system.clk_domain.voltage_domain.voltage            1                       # Voltage in Volts
system.cpu.pwrStateResidencyTicks::ON      1103298800                       # Cumulative time (in ticks) in various power states
system.cpu.icache.pwrStateResidencyTicks::UNDEFINED   1103298800                       # Cumulative time (in ticks) in various power states
system.cpu.icache.demand_hits::.cpu.inst       240086                       # number of demand (read+write) hits
system.cpu.icache.demand_hits::total           240086                       # number of demand (read+write) hits
system.cpu.icache.overall_hits::.cpu.inst       240086                       # number of overall hits
system.cpu.icache.overall_hits::total          240086                       # number of overall hits
system.cpu.icache.demand_misses::.cpu.inst         3790                       # number of demand (read+write) misses
system.cpu.icache.demand_misses::total           3790                       # number of demand (read+write) misses
system.cpu.icache.overall_misses::.cpu.inst         3790                       # number of overall misses
system.cpu.icache.overall_misses::total          3790                       # number of overall misses
system.cpu.icache.demand_miss_latency::.cpu.inst    184681200                       # number of demand (read+write) miss cycles
system.cpu.icache.demand_miss_latency::total    184681200                       # number of demand (read+write) miss cycles
system.cpu.icache.overall_miss_latency::.cpu.inst    184681200                       # number of overall miss cycles
system.cpu.icache.overall_miss_latency::total    184681200                       # number of overall miss cycles
system.cpu.icache.demand_accesses::.cpu.inst       243876                       # number of demand (read+write) accesses
system.cpu.icache.demand_accesses::total       243876                       # number of demand (read+write) accesses
system.cpu.icache.overall_accesses::.cpu.inst       243876                       # number of overall (read+write) accesses
system.cpu.icache.overall_accesses::total       243876                       # number of overall (read+write) accesses
system.cpu.icache.demand_miss_rate::.cpu.inst     0.015541                       # miss rate for demand accesses
system.cpu.icache.demand_miss_rate::total     0.015541                       # miss rate for demand accesses
system.cpu.icache.overall_miss_rate::.cpu.inst     0.015541                       # miss rate for overall accesses
system.cpu.icache.overall_miss_rate::total     0.015541                       # miss rate for overall accesses
system.cpu.icache.demand_avg_miss_latency::.cpu.inst 48728.548813                       # average overall miss latency
system.cpu.icache.demand_avg_miss_latency::total 48728.548813                       # average overall miss latency
system.cpu.icache.overall_avg_miss_latency::.cpu.inst 48728.548813                       # average overall miss latency
system.cpu.icache.overall_avg_miss_latency::total 48728.548813                       # average overall miss latency
system.cpu.icache.blocked_cycles::no_mshrs          180                       # number of cycles access was blocked
system.cpu.icache.blocked_cycles::no_targets            0                       # number of cycles access was blocked
system.cpu.icache.blocked::no_mshrs                 5                       # number of cycles access was blocked
system.cpu.icache.blocked::no_targets               0                       # number of cycles access was blocked
system.cpu.icache.avg_blocked_cycles::no_mshrs           36                       # average number of cycles each access was blocked
system.cpu.icache.avg_blocked_cycles::no_targets          nan                       # average number of cycles each access was blocked
system.cpu.icache.demand_mshr_hits::.cpu.inst          742                       # number of demand (read+write) MSHR hits
system.cpu.icache.demand_mshr_hits::total          742                       # number of demand (read+write) MSHR hits
system.cpu.icache.overall_mshr_hits::.cpu.inst          742                       # number of overall MSHR hits
system.cpu.icache.overall_mshr_hits::total          742                       # number of overall MSHR hits
system.cpu.icache.demand_mshr_misses::.cpu.inst         3048                       # number of demand (read+write) MSHR misses
system.cpu.icache.demand_mshr_misses::total         3048                       # number of demand (read+write) MSHR misses
system.cpu.icache.overall_mshr_misses::.cpu.inst         3048                       # number of overall MSHR misses
system.cpu.icache.overall_mshr_misses::total         3048                       # number of overall MSHR misses
system.cpu.icache.demand_mshr_miss_latency::.cpu.inst    148834000                       # number of demand (read+write) MSHR miss cycles
system.cpu.icache.demand_mshr_miss_latency::total    148834000                       # number of demand (read+write) MSHR miss cycles
system.cpu.icache.overall_mshr_miss_latency::.cpu.inst    148834000                       # number of overall MSHR miss cycles
system.cpu.icache.overall_mshr_miss_latency::total    148834000                       # number of overall MSHR miss cycles
system.cpu.icache.demand_mshr_miss_rate::.cpu.inst     0.012498                       # mshr miss rate for demand accesses
system.cpu.icache.demand_mshr_miss_rate::total     0.012498                       # mshr miss rate for demand accesses
system.cpu.icache.overall_mshr_miss_rate::.cpu.inst     0.012498                       # mshr miss rate for overall accesses
system.cpu.icache.overall_mshr_miss_rate::total     0.012498                       # mshr miss rate for overall accesses
system.cpu.icache.demand_avg_mshr_miss_latency::.cpu.inst 48830.052493                       # average overall mshr miss latency
system.cpu.icache.demand_avg_mshr_miss_latency::total 48830.052493                       # average overall mshr miss latency
system.cpu.icache.overall_avg_mshr_miss_latency::.cpu.inst 48830.052493                       # average overall mshr miss latency
system.cpu.icache.overall_avg_mshr_miss_latency::total 48830.052493                       # average overall mshr miss latency
system.cpu.icache.replacements                   2792                       # number of replacements
system.cpu.icache.ReadReq_hits::.cpu.inst       240086                       # number of ReadReq hits
system.cpu.icache.ReadReq_hits::total          240086                       # number of ReadReq hits
system.cpu.icache.ReadReq_misses::.cpu.inst         3790                       # number of ReadReq misses
system.cpu.icache.ReadReq_misses::total          3790                       # number of ReadReq misses
system.cpu.icache.ReadReq_miss_latency::.cpu.inst    184681200                       # number of ReadReq miss cycles
system.cpu.icache.ReadReq_miss_latency::total    184681200                       # number of ReadReq miss cycles
system.cpu.icache.ReadReq_accesses::.cpu.inst       243876                       # number of ReadReq accesses(hits+misses)
system.cpu.icache.ReadReq_accesses::total       243876                       # number of ReadReq accesses(hits+misses)
system.cpu.icache.ReadReq_miss_rate::.cpu.inst     0.015541                       # miss rate for ReadReq accesses
system.cpu.icache.ReadReq_miss_rate::total     0.015541                       # miss rate for ReadReq accesses
system.cpu.icache.ReadReq_avg_miss_latency::.cpu.inst 48728.548813                       # average ReadReq miss latency
system.cpu.icache.ReadReq_avg_miss_latency::total 48728.548813                       # average ReadReq miss latency
system.cpu.icache.ReadReq_mshr_hits::.cpu.inst          742                       # number of ReadReq MSHR hits
system.cpu.icache.ReadReq_mshr_hits::total          742                       # number of ReadReq MSHR hits
system.cpu.icache.ReadReq_mshr_misses::.cpu.inst         3048                       # number of ReadReq MSHR misses
system.cpu.icache.ReadReq_mshr_misses::total         3048                       # number of ReadReq MSHR misses
system.cpu.icache.ReadReq_mshr_miss_latency::.cpu.inst    148834000                       # number of ReadReq MSHR miss cycles
system.cpu.icache.ReadReq_mshr_miss_latency::total    148834000                       # number of ReadReq MSHR miss cycles
system.cpu.icache.ReadReq_mshr_miss_rate::.cpu.inst     0.012498                       # mshr miss rate for ReadReq accesses
system.cpu.icache.ReadReq_mshr_miss_rate::total     0.012498                       # mshr miss rate for ReadReq accesses
system.cpu.icache.ReadReq_avg_mshr_miss_latency::.cpu.inst 48830.052493                       # average ReadReq mshr miss latency
system.cpu.icache.ReadReq_avg_mshr_miss_latency::total 48830.052493                       # average ReadReq mshr miss latency
system.cpu.icache.prefetcher.pwrStateResidencyTicks::UNDEFINED   1103298800                       # Cumulative time (in ticks) in various power states
system.cpu.icache.tags.pwrStateResidencyTicks::UNDEFINED   1103298800                       # Cumulative time (in ticks) in various power states
system.cpu.icache.tags.tagsinuse           253.512351                       # Cycle average of tags in use
system.cpu.icache.tags.total_refs              227456                       # Total number of references to valid blocks.
system.cpu.icache.tags.sampled_refs              2792                       # Sample count of references to valid blocks.
system.cpu.icache.tags.avg_refs             81.467049                       # Average number of references to valid blocks.
system.cpu.icache.tags.warmup_cycle             66400                       # Cycle when the warmup percentage was hit.
system.cpu.icache.tags.occ_blocks::.cpu.inst   253.512351                       # Average occupied blocks per requestor
system.cpu.icache.tags.occ_percent::.cpu.inst     0.990283                       # Average percentage of cache occupancy
system.cpu.icache.tags.occ_percent::total     0.990283                       # Average percentage of cache occupancy
system.cpu.icache.tags.occ_task_id_blocks::1024          256                       # Occupied blocks per task id
system.cpu.icache.tags.age_task_id_blocks_1024::0           73                       # Occupied blocks per task id
system.cpu.icache.tags.age_task_id_blocks_1024::1          162                       # Occupied blocks per task id
system.cpu.icache.tags.age_task_id_blocks_1024::2           17                       # Occupied blocks per task id
system.cpu.icache.tags.age_task_id_blocks_1024::3            4                       # Occupied blocks per task id
system.cpu.icache.tags.occ_task_id_percent::1024            1                       # Percentage of cache occupancy per task id
system.cpu.icache.tags.tag_accesses            490800                       # Number of tag accesses
system.cpu.icache.tags.data_accesses           490800                       # Number of data accesses
system.cpu.dtb.walker.pwrStateResidencyTicks::UNDEFINED   1103298800                       # Cumulative time (in ticks) in various power states
system.cpu.interrupts.clk_domain.clock           6400                       # Clock period in ticks
system.cpu.itb.walker.pwrStateResidencyTicks::UNDEFINED   1103298800                       # Cumulative time (in ticks) in various power states
system.cpu.dcache.pwrStateResidencyTicks::UNDEFINED   1103298800                       # Cumulative time (in ticks) in various power states
system.cpu.dcache.demand_hits::.cpu.data       682875                       # number of demand (read+write) hits
system.cpu.dcache.demand_hits::total           682875                       # number of demand (read+write) hits
system.cpu.dcache.overall_hits::.cpu.data       682875                       # number of overall hits
system.cpu.dcache.overall_hits::total          682875                       # number of overall hits
system.cpu.dcache.demand_misses::.cpu.data        35596                       # number of demand (read+write) misses
system.cpu.dcache.demand_misses::total          35596                       # number of demand (read+write) misses
system.cpu.dcache.overall_misses::.cpu.data        35596                       # number of overall misses
system.cpu.dcache.overall_misses::total         35596                       # number of overall misses
system.cpu.dcache.demand_miss_latency::.cpu.data   1730223600                       # number of demand (read+write) miss cycles
system.cpu.dcache.demand_miss_latency::total   1730223600                       # number of demand (read+write) miss cycles
system.cpu.dcache.overall_miss_latency::.cpu.data   1730223600                       # number of overall miss cycles
system.cpu.dcache.overall_miss_latency::total   1730223600                       # number of overall miss cycles
system.cpu.dcache.demand_accesses::.cpu.data       718471                       # number of demand (read+write) accesses
system.cpu.dcache.demand_accesses::total       718471                       # number of demand (read+write) accesses
system.cpu.dcache.overall_accesses::.cpu.data       718471                       # number of overall (read+write) accesses
system.cpu.dcache.overall_accesses::total       718471                       # number of overall (read+write) accesses
system.cpu.dcache.demand_miss_rate::.cpu.data     0.049544                       # miss rate for demand accesses
system.cpu.dcache.demand_miss_rate::total     0.049544                       # miss rate for demand accesses
system.cpu.dcache.overall_miss_rate::.cpu.data     0.049544                       # miss rate for overall accesses
system.cpu.dcache.overall_miss_rate::total     0.049544                       # miss rate for overall accesses
system.cpu.dcache.demand_avg_miss_latency::.cpu.data 48607.248005                       # average overall miss latency
system.cpu.dcache.demand_avg_miss_latency::total 48607.248005                       # average overall miss latency
system.cpu.dcache.overall_avg_miss_latency::.cpu.data 48607.248005                       # average overall miss latency
system.cpu.dcache.overall_avg_miss_latency::total 48607.248005                       # average overall miss latency
system.cpu.dcache.blocked_cycles::no_mshrs        28465                       # number of cycles access was blocked
system.cpu.dcache.blocked_cycles::no_targets           98                       # number of cycles access was blocked
system.cpu.dcache.blocked::no_mshrs               737                       # number of cycles access was blocked
system.cpu.dcache.blocked::no_targets               1                       # number of cycles access was blocked
system.cpu.dcache.avg_blocked_cycles::no_mshrs    38.622795                       # average number of cycles each access was blocked
system.cpu.dcache.avg_blocked_cycles::no_targets           98                       # average number of cycles each access was blocked
system.cpu.dcache.unused_prefetches              1939                       # number of HardPF blocks evicted w/o reference
system.cpu.dcache.writebacks::.writebacks         2794                       # number of writebacks
system.cpu.dcache.writebacks::total              2794                       # number of writebacks
system.cpu.dcache.demand_mshr_hits::.cpu.data        22911                       # number of demand (read+write) MSHR hits
system.cpu.dcache.demand_mshr_hits::total        22911                       # number of demand (read+write) MSHR hits
system.cpu.dcache.overall_mshr_hits::.cpu.data        22911                       # number of overall MSHR hits
system.cpu.dcache.overall_mshr_hits::total        22911                       # number of overall MSHR hits
system.cpu.dcache.demand_mshr_misses::.cpu.data        12685                       # number of demand (read+write) MSHR misses
system.cpu.dcache.demand_mshr_misses::total        12685                       # number of demand (read+write) MSHR misses
system.cpu.dcache.overall_mshr_misses::.cpu.data        12685                       # number of overall MSHR misses
system.cpu.dcache.overall_mshr_misses::.cpu.dcache.prefetcher         4453                       # number of overall MSHR misses
system.cpu.dcache.overall_mshr_misses::total        17138                       # number of overall MSHR misses
system.cpu.dcache.demand_mshr_miss_latency::.cpu.data    583459600                       # number of demand (read+write) MSHR miss cycles
system.cpu.dcache.demand_mshr_miss_latency::total    583459600                       # number of demand (read+write) MSHR miss cycles
system.cpu.dcache.overall_mshr_miss_latency::.cpu.data    583459600                       # number of overall MSHR miss cycles
system.cpu.dcache.overall_mshr_miss_latency::.cpu.dcache.prefetcher    250232426                       # number of overall MSHR miss cycles
system.cpu.dcache.overall_mshr_miss_latency::total    833692026                       # number of overall MSHR miss cycles
system.cpu.dcache.demand_mshr_miss_rate::.cpu.data     0.017656                       # mshr miss rate for demand accesses
system.cpu.dcache.demand_mshr_miss_rate::total     0.017656                       # mshr miss rate for demand accesses
system.cpu.dcache.overall_mshr_miss_rate::.cpu.data     0.017656                       # mshr miss rate for overall accesses
system.cpu.dcache.overall_mshr_miss_rate::.cpu.dcache.prefetcher          inf                       # mshr miss rate for overall accesses
system.cpu.dcache.overall_mshr_miss_rate::total     0.023853                       # mshr miss rate for overall accesses
system.cpu.dcache.demand_avg_mshr_miss_latency::.cpu.data 45996.026803                       # average overall mshr miss latency
system.cpu.dcache.demand_avg_mshr_miss_latency::total 45996.026803                       # average overall mshr miss latency
system.cpu.dcache.overall_avg_mshr_miss_latency::.cpu.data 45996.026803                       # average overall mshr miss latency
system.cpu.dcache.overall_avg_mshr_miss_latency::.cpu.dcache.prefetcher 56194.122165                       # average overall mshr miss latency
system.cpu.dcache.overall_avg_mshr_miss_latency::total 48645.817832                       # average overall mshr miss latency
system.cpu.dcache.replacements                  16114                       # number of replacements
system.cpu.dcache.ReadReq_hits::.cpu.data       509783                       # number of ReadReq hits
system.cpu.dcache.ReadReq_hits::total          509783                       # number of ReadReq hits
system.cpu.dcache.ReadReq_misses::.cpu.data        33510                       # number of ReadReq misses
system.cpu.dcache.ReadReq_misses::total         33510                       # number of ReadReq misses
system.cpu.dcache.ReadReq_miss_latency::.cpu.data   1627374400                       # number of ReadReq miss cycles
system.cpu.dcache.ReadReq_miss_latency::total   1627374400                       # number of ReadReq miss cycles
system.cpu.dcache.ReadReq_accesses::.cpu.data       543293                       # number of ReadReq accesses(hits+misses)
system.cpu.dcache.ReadReq_accesses::total       543293                       # number of ReadReq accesses(hits+misses)
system.cpu.dcache.ReadReq_miss_rate::.cpu.data     0.061679                       # miss rate for ReadReq accesses
system.cpu.dcache.ReadReq_miss_rate::total     0.061679                       # miss rate for ReadReq accesses
system.cpu.dcache.ReadReq_avg_miss_latency::.cpu.data 48563.843629                       # average ReadReq miss latency
system.cpu.dcache.ReadReq_avg_miss_latency::total 48563.843629                       # average ReadReq miss latency
system.cpu.dcache.ReadReq_mshr_hits::.cpu.data        22876                       # number of ReadReq MSHR hits
system.cpu.dcache.ReadReq_mshr_hits::total        22876                       # number of ReadReq MSHR hits
system.cpu.dcache.ReadReq_mshr_misses::.cpu.data        10634                       # number of ReadReq MSHR misses
system.cpu.dcache.ReadReq_mshr_misses::total        10634                       # number of ReadReq MSHR misses
system.cpu.dcache.ReadReq_mshr_miss_latency::.cpu.data    483317600                       # number of ReadReq MSHR miss cycles
system.cpu.dcache.ReadReq_mshr_miss_latency::total    483317600                       # number of ReadReq MSHR miss cycles
system.cpu.dcache.ReadReq_mshr_miss_rate::.cpu.data     0.019573                       # mshr miss rate for ReadReq accesses
system.cpu.dcache.ReadReq_mshr_miss_rate::total     0.019573                       # mshr miss rate for ReadReq accesses
system.cpu.dcache.ReadReq_avg_mshr_miss_latency::.cpu.data 45450.216287                       # average ReadReq mshr miss latency
system.cpu.dcache.ReadReq_avg_mshr_miss_latency::total 45450.216287                       # average ReadReq mshr miss latency
system.cpu.dcache.WriteReq_hits::.cpu.data       173092                       # number of WriteReq hits
system.cpu.dcache.WriteReq_hits::total         173092                       # number of WriteReq hits
system.cpu.dcache.WriteReq_misses::.cpu.data         2086                       # number of WriteReq misses
system.cpu.dcache.WriteReq_misses::total         2086                       # number of WriteReq misses
system.cpu.dcache.WriteReq_miss_latency::.cpu.data    102849200                       # number of WriteReq miss cycles
system.cpu.dcache.WriteReq_miss_latency::total    102849200                       # number of WriteReq miss cycles
system.cpu.dcache.WriteReq_accesses::.cpu.data       175178                       # number of WriteReq accesses(hits+misses)
system.cpu.dcache.WriteReq_accesses::total       175178                       # number of WriteReq accesses(hits+misses)
system.cpu.dcache.WriteReq_miss_rate::.cpu.data     0.011908                       # miss rate for WriteReq accesses
system.cpu.dcache.WriteReq_miss_rate::total     0.011908                       # miss rate for WriteReq accesses
system.cpu.dcache.WriteReq_avg_miss_latency::.cpu.data 49304.506232                       # average WriteReq miss latency
system.cpu.dcache.WriteReq_avg_miss_latency::total 49304.506232                       # average WriteReq miss latency
system.cpu.dcache.WriteReq_mshr_hits::.cpu.data           35                       # number of WriteReq MSHR hits
system.cpu.dcache.WriteReq_mshr_hits::total           35                       # number of WriteReq MSHR hits
system.cpu.dcache.WriteReq_mshr_misses::.cpu.data         2051                       # number of WriteReq MSHR misses
system.cpu.dcache.WriteReq_mshr_misses::total         2051                       # number of WriteReq MSHR misses
[...]
system.l2cache.overall_mshr_miss_latency::total     15665178                       # number of overall MSHR miss cycles
system.l2cache.demand_mshr_miss_rate::.cpu.inst     0.392500                       # mshr miss rate for demand accesses
system.l2cache.demand_mshr_miss_rate::.cpu.data     0.536913                       # mshr miss rate for demand accesses
system.l2cache.demand_mshr_miss_rate::.cpu.dcache.prefetcher     0.714286                       # mshr miss rate for demand accesses
system.l2cache.demand_mshr_miss_rate::total     0.445407                       # mshr miss rate for demand accesses
system.l2cache.overall_mshr_miss_rate::.cpu.inst     0.392500                       # mshr miss rate for overall accesses
system.l2cache.overall_mshr_miss_rate::.cpu.data     0.536913                       # mshr miss rate for overall accesses
system.l2cache.overall_mshr_miss_rate::.cpu.dcache.prefetcher     0.714286                       # mshr miss rate for overall accesses
system.l2cache.overall_mshr_miss_rate::.l2cache.prefetcher          inf                       # mshr miss rate for overall accesses
system.l2cache.overall_mshr_miss_rate::total     0.448873                       # mshr miss rate for overall accesses
system.l2cache.demand_avg_mshr_miss_latency::.cpu.inst 59643.312102                       # average overall mshr miss latency
system.l2cache.demand_avg_mshr_miss_latency::.cpu.data        62790                       # average overall mshr miss latency
system.l2cache.demand_avg_mshr_miss_latency::.cpu.dcache.prefetcher 57659.050000                       # average overall mshr miss latency
system.l2cache.demand_avg_mshr_miss_latency::total 60468.408560                       # average overall mshr miss latency
system.l2cache.overall_avg_mshr_miss_latency::.cpu.inst 59643.312102                       # average overall mshr miss latency
system.l2cache.overall_avg_mshr_miss_latency::.cpu.data        62790                       # average overall mshr miss latency
system.l2cache.overall_avg_mshr_miss_latency::.cpu.dcache.prefetcher 57659.050000                       # average overall mshr miss latency
system.l2cache.overall_avg_mshr_miss_latency::.l2cache.prefetcher 62398.500000                       # average overall mshr miss latency
system.l2cache.overall_avg_mshr_miss_latency::total 60483.312741                       # average overall mshr miss latency
system.l2cache.replacements                       263                       # number of replacements
system.l2cache.WritebackDirty_hits::.writebacks           42                       # number of WritebackDirty hits
system.l2cache.WritebackDirty_hits::total           42                       # number of WritebackDirty hits
system.l2cache.WritebackDirty_accesses::.writebacks           42                       # number of WritebackDirty accesses(hits+misses)
system.l2cache.WritebackDirty_accesses::total           42                       # number of WritebackDirty accesses(hits+misses)
system.l2cache.CleanEvict_mshr_misses::.writebacks            7                       # number of CleanEvict MSHR misses
system.l2cache.CleanEvict_mshr_misses::total            7                       # number of CleanEvict MSHR misses
system.l2cache.CleanEvict_mshr_miss_rate::.writebacks          inf                       # mshr miss rate for CleanEvict accesses
system.l2cache.CleanEvict_mshr_miss_rate::total          inf                       # mshr miss rate for CleanEvict accesses
system.l2cache.HardPFReq_mshr_misses::.l2cache.prefetcher            2                       # number of HardPFReq MSHR misses
system.l2cache.HardPFReq_mshr_misses::total            2                       # number of HardPFReq MSHR misses
system.l2cache.HardPFReq_mshr_miss_latency::.l2cache.prefetcher       124797                       # number of HardPFReq MSHR miss cycles
system.l2cache.HardPFReq_mshr_miss_latency::total       124797                       # number of HardPFReq MSHR miss cycles
system.l2cache.HardPFReq_mshr_miss_rate::.l2cache.prefetcher          inf                       # mshr miss rate for HardPFReq accesses
system.l2cache.HardPFReq_mshr_miss_rate::total          inf                       # mshr miss rate for HardPFReq accesses
system.l2cache.HardPFReq_avg_mshr_miss_latency::.l2cache.prefetcher 62398.500000                       # average HardPFReq mshr miss latency
system.l2cache.HardPFReq_avg_mshr_miss_latency::total 62398.500000                       # average HardPFReq mshr miss latency
system.l2cache.ReadExReq_hits::.cpu.data            4                       # number of ReadExReq hits
system.l2cache.ReadExReq_hits::total                4                       # number of ReadExReq hits
system.l2cache.ReadExReq_misses::.cpu.data            5                       # number of ReadExReq misses
system.l2cache.ReadExReq_misses::total              5                       # number of ReadExReq misses
system.l2cache.ReadExReq_miss_latency::.cpu.data       488000                       # number of ReadExReq miss cycles
system.l2cache.ReadExReq_miss_latency::total       488000                       # number of ReadExReq miss cycles
system.l2cache.ReadExReq_accesses::.cpu.data            9                       # number of ReadExReq accesses(hits+misses)
system.l2cache.ReadExReq_accesses::total            9                       # number of ReadExReq accesses(hits+misses)
system.l2cache.ReadExReq_miss_rate::.cpu.data     0.555556                       # miss rate for ReadExReq accesses
system.l2cache.ReadExReq_miss_rate::total     0.555556                       # miss rate for ReadExReq accesses
system.l2cache.ReadExReq_avg_miss_latency::.cpu.data        97600                       # average ReadExReq miss latency
system.l2cache.ReadExReq_avg_miss_latency::total        97600                       # average ReadExReq miss latency
system.l2cache.ReadExReq_mshr_misses::.cpu.data            5                       # number of ReadExReq MSHR misses
system.l2cache.ReadExReq_mshr_misses::total            5                       # number of ReadExReq MSHR misses
system.l2cache.ReadExReq_mshr_miss_latency::.cpu.data       448000                       # number of ReadExReq MSHR miss cycles
system.l2cache.ReadExReq_mshr_miss_latency::total       448000                       # number of ReadExReq MSHR miss cycles
system.l2cache.ReadExReq_mshr_miss_rate::.cpu.data     0.555556                       # mshr miss rate for ReadExReq accesses
system.l2cache.ReadExReq_mshr_miss_rate::total     0.555556                       # mshr miss rate for ReadExReq accesses
system.l2cache.ReadExReq_avg_mshr_miss_latency::.cpu.data        89600                       # average ReadExReq mshr miss latency
system.l2cache.ReadExReq_avg_mshr_miss_latency::total        89600                       # average ReadExReq mshr miss latency
system.l2cache.ReadSharedReq_hits::.cpu.inst          243                       # number of ReadSharedReq hits
system.l2cache.ReadSharedReq_hits::.cpu.data           65                       # number of ReadSharedReq hits
system.l2cache.ReadSharedReq_hits::.cpu.dcache.prefetcher            8                       # number of ReadSharedReq hits
system.l2cache.ReadSharedReq_hits::total          316                       # number of ReadSharedReq hits
system.l2cache.ReadSharedReq_misses::.cpu.inst          157                       # number of ReadSharedReq misses
system.l2cache.ReadSharedReq_misses::.cpu.data           75                       # number of ReadSharedReq misses
system.l2cache.ReadSharedReq_misses::.cpu.dcache.prefetcher           20                       # number of ReadSharedReq misses
system.l2cache.ReadSharedReq_misses::total          252                       # number of ReadSharedReq misses
system.l2cache.ReadSharedReq_miss_latency::.cpu.inst     10612000                       # number of ReadSharedReq miss cycles
system.l2cache.ReadSharedReq_miss_latency::.cpu.data      5175200                       # number of ReadSharedReq miss cycles
system.l2cache.ReadSharedReq_miss_latency::.cpu.dcache.prefetcher      1313181                       # number of ReadSharedReq miss cycles
system.l2cache.ReadSharedReq_miss_latency::total     17100381                       # number of ReadSharedReq miss cycles
system.l2cache.ReadSharedReq_accesses::.cpu.inst          400                       # number of ReadSharedReq accesses(hits+misses)
system.l2cache.ReadSharedReq_accesses::.cpu.data          140                       # number of ReadSharedReq accesses(hits+misses)
system.l2cache.ReadSharedReq_accesses::.cpu.dcache.prefetcher           28                       # number of ReadSharedReq accesses(hits+misses)
system.l2cache.ReadSharedReq_accesses::total          568                       # number of ReadSharedReq accesses(hits+misses)
system.l2cache.ReadSharedReq_miss_rate::.cpu.inst     0.392500                       # miss rate for ReadSharedReq accesses
system.l2cache.ReadSharedReq_miss_rate::.cpu.data     0.535714                       # miss rate for ReadSharedReq accesses
system.l2cache.ReadSharedReq_miss_rate::.cpu.dcache.prefetcher     0.714286                       # miss rate for ReadSharedReq accesses
system.l2cache.ReadSharedReq_miss_rate::total     0.443662                       # miss rate for ReadSharedReq accesses
system.l2cache.ReadSharedReq_avg_miss_latency::.cpu.inst 67592.356688                       # average ReadSharedReq miss latency
system.l2cache.ReadSharedReq_avg_miss_latency::.cpu.data 69002.666667                       # average ReadSharedReq miss latency
system.l2cache.ReadSharedReq_avg_miss_latency::.cpu.dcache.prefetcher 65659.050000                       # average ReadSharedReq miss latency
system.l2cache.ReadSharedReq_avg_miss_latency::total 67858.654762                       # average ReadSharedReq miss latency
system.l2cache.ReadSharedReq_mshr_misses::.cpu.inst          157                       # number of ReadSharedReq MSHR misses
system.l2cache.ReadSharedReq_mshr_misses::.cpu.data           75                       # number of ReadSharedReq MSHR misses
system.l2cache.ReadSharedReq_mshr_misses::.cpu.dcache.prefetcher           20                       # number of ReadSharedReq MSHR misses
system.l2cache.ReadSharedReq_mshr_misses::total          252                       # number of ReadSharedReq MSHR misses
system.l2cache.ReadSharedReq_mshr_miss_latency::.cpu.inst      9364000                       # number of ReadSharedReq MSHR miss cycles
system.l2cache.ReadSharedReq_mshr_miss_latency::.cpu.data      4575200                       # number of ReadSharedReq MSHR miss cycles
system.l2cache.ReadSharedReq_mshr_miss_latency::.cpu.dcache.prefetcher      1153181                       # number of ReadSharedReq MSHR miss cycles
system.l2cache.ReadSharedReq_mshr_miss_latency::total     15092381                       # number of ReadSharedReq MSHR miss cycles
system.l2cache.ReadSharedReq_mshr_miss_rate::.cpu.inst     0.392500                       # mshr miss rate for ReadSharedReq accesses
system.l2cache.ReadSharedReq_mshr_miss_rate::.cpu.data     0.535714                       # mshr miss rate for ReadSharedReq accesses
system.l2cache.ReadSharedReq_mshr_miss_rate::.cpu.dcache.prefetcher     0.714286                       # mshr miss rate for ReadSharedReq accesses
system.l2cache.ReadSharedReq_mshr_miss_rate::total     0.443662                       # mshr miss rate for ReadSharedReq accesses
system.l2cache.ReadSharedReq_avg_mshr_miss_latency::.cpu.inst 59643.312102                       # average ReadSharedReq mshr miss latency
system.l2cache.ReadSharedReq_avg_mshr_miss_latency::.cpu.data 61002.666667                       # average ReadSharedReq mshr miss latency
system.l2cache.ReadSharedReq_avg_mshr_miss_latency::.cpu.dcache.prefetcher 57659.050000                       # average ReadSharedReq mshr miss latency
system.l2cache.ReadSharedReq_avg_mshr_miss_latency::total 59890.400794                       # average ReadSharedReq mshr miss latency
system.l2cache.prefetcher.pwrStateResidencyTicks::UNDEFINED     30142400                       # Cumulative time (in ticks) in various power states
system.l2cache.tags.pwrStateResidencyTicks::UNDEFINED     30142400                       # Cumulative time (in ticks) in various power states
system.l2cache.tags.tagsinuse                    4096                       # Cycle average of tags in use
system.l2cache.tags.total_refs                  13937                       # Total number of references to valid blocks.
system.l2cache.tags.sampled_refs                 4359                       # Sample count of references to valid blocks.
system.l2cache.tags.avg_refs                 3.197293                       # Average number of references to valid blocks.
system.l2cache.tags.warmup_cycle                    0                       # Cycle when the warmup percentage was hit.
system.l2cache.tags.occ_blocks::.writebacks    38.050892                       # Average occupied blocks per requestor
system.l2cache.tags.occ_blocks::.cpu.inst  1165.207644                       # Average occupied blocks per requestor
system.l2cache.tags.occ_blocks::.cpu.data  1866.186885                       # Average occupied blocks per requestor
system.l2cache.tags.occ_blocks::.cpu.dcache.prefetcher   901.783440                       # Average occupied blocks per requestor
system.l2cache.tags.occ_blocks::.l2cache.prefetcher   124.771140                       # Average occupied blocks per requestor
system.l2cache.tags.occ_percent::.writebacks     0.009290                       # Average percentage of cache occupancy
system.l2cache.tags.occ_percent::.cpu.inst     0.284475                       # Average percentage of cache occupancy
system.l2cache.tags.occ_percent::.cpu.data     0.455612                       # Average percentage of cache occupancy
system.l2cache.tags.occ_percent::.cpu.dcache.prefetcher     0.220162                       # Average percentage of cache occupancy
system.l2cache.tags.occ_percent::.l2cache.prefetcher     0.030462                       # Average percentage of cache occupancy
system.l2cache.tags.occ_percent::total              1                       # Average percentage of cache occupancy
system.l2cache.tags.occ_task_id_blocks::1022          991                       # Occupied blocks per task id
system.l2cache.tags.occ_task_id_blocks::1024         3105                       # Occupied blocks per task id
system.l2cache.tags.age_task_id_blocks_1022::0            9                       # Occupied blocks per task id
system.l2cache.tags.age_task_id_blocks_1022::1           13                       # Occupied blocks per task id
system.l2cache.tags.age_task_id_blocks_1022::2          910                       # Occupied blocks per task id
system.l2cache.tags.age_task_id_blocks_1022::3           59                       # Occupied blocks per task id
system.l2cache.tags.age_task_id_blocks_1024::0          165                       # Occupied blocks per task id
system.l2cache.tags.age_task_id_blocks_1024::1           76                       # Occupied blocks per task id
system.l2cache.tags.age_task_id_blocks_1024::2         2635                       # Occupied blocks per task id
system.l2cache.tags.age_task_id_blocks_1024::3          229                       # Occupied blocks per task id
system.l2cache.tags.occ_task_id_percent::1022     0.241943                       # Percentage of cache occupancy per task id
system.l2cache.tags.occ_task_id_percent::1024     0.758057                       # Percentage of cache occupancy per task id
system.l2cache.tags.tag_accesses                 9487                       # Number of tag accesses
system.l2cache.tags.data_accesses                9487                       # Number of data accesses
system.mem_ctrl.pwrStateResidencyTicks::UNDEFINED     30142400                       # Cumulative time (in ticks) in various power states
system.mem_ctrl.bytes_read::.cpu.inst            9984                       # Number of bytes read from this memory
system.mem_ctrl.bytes_read::.cpu.data            5120                       # Number of bytes read from this memory
system.mem_ctrl.bytes_read::.cpu.dcache.prefetcher         1280                       # Number of bytes read from this memory
system.mem_ctrl.bytes_read::.l2cache.prefetcher          128                       # Number of bytes read from this memory
system.mem_ctrl.bytes_read::total               16512                       # Number of bytes read from this memory
system.mem_ctrl.bytes_inst_read::.cpu.inst         9984                       # Number of instructions bytes read from this memory
system.mem_ctrl.bytes_inst_read::total           9984                       # Number of instructions bytes read from this memory
system.mem_ctrl.bytes_written::.writebacks          896                       # Number of bytes written to this memory
system.mem_ctrl.bytes_written::total              896                       # Number of bytes written to this memory
system.mem_ctrl.num_reads::.cpu.inst              156                       # Number of read requests responded to by this memory
system.mem_ctrl.num_reads::.cpu.data               80                       # Number of read requests responded to by this memory
system.mem_ctrl.num_reads::.cpu.dcache.prefetcher           20                       # Number of read requests responded to by this memory
system.mem_ctrl.num_reads::.l2cache.prefetcher            2                       # Number of read requests responded to by this memory
system.mem_ctrl.num_reads::total                  258                       # Number of read requests responded to by this memory
system.mem_ctrl.num_writes::.writebacks            14                       # Number of write requests responded to by this memory
system.mem_ctrl.num_writes::total                  14                       # Number of write requests responded to by this memory
system.mem_ctrl.bw_read::.cpu.inst          331227772                       # Total read bandwidth from this memory (bytes/s)
system.mem_ctrl.bw_read::.cpu.data          169860396                       # Total read bandwidth from this memory (bytes/s)
system.mem_ctrl.bw_read::.cpu.dcache.prefetcher     42465099                       # Total read bandwidth from this memory (bytes/s)
system.mem_ctrl.bw_read::.l2cache.prefetcher      4246510                       # Total read bandwidth from this memory (bytes/s)
system.mem_ctrl.bw_read::total              547799777                       # Total read bandwidth from this memory (bytes/s)
system.mem_ctrl.bw_inst_read::.cpu.inst     331227772                       # Instruction read bandwidth from this memory (bytes/s)
system.mem_ctrl.bw_inst_read::total         331227772                       # Instruction read bandwidth from this memory (bytes/s)
system.mem_ctrl.bw_write::.writebacks        29725569                       # Write bandwidth from this memory (bytes/s)
system.mem_ctrl.bw_write::total              29725569                       # Write bandwidth from this memory (bytes/s)
system.mem_ctrl.bw_total::.writebacks        29725569                       # Total bandwidth to/from this memory (bytes/s)
system.mem_ctrl.bw_total::.cpu.inst         331227772                       # Total bandwidth to/from this memory (bytes/s)
system.mem_ctrl.bw_total::.cpu.data         169860396                       # Total bandwidth to/from this memory (bytes/s)
system.mem_ctrl.bw_total::.cpu.dcache.prefetcher     42465099                       # Total bandwidth to/from this memory (bytes/s)
system.mem_ctrl.bw_total::.l2cache.prefetcher      4246510                       # Total bandwidth to/from this memory (bytes/s)
system.mem_ctrl.bw_total::total             577525346                       # Total bandwidth to/from this memory (bytes/s)

---------- End Simulation Statistics   ----------
