
---------- Begin Simulation Statistics ----------
final_tick                                 1169026000                       # Number of ticks from beginning of simulation (restored from checkpoints and never reset)
host_inst_rate                                 173059                       # Simulator instruction rate (inst/s)
host_mem_usage                                4408884                       # Number of bytes of host memory used
host_op_rate                                   304839                       # Simulator op (including micro ops) rate (op/s)
host_seconds                                    13.00                       # Real time elapsed on the host
host_tick_rate                               89952121                       # Simulator tick rate (ticks/s)
sim_freq                                 1000000000000                       # Frequency of simulated ticks
sim_insts                                     2249076                       # Number of instructions simulated
sim_ops                                       3961716                       # Number of ops (including micro ops) simulated
sim_seconds                                  0.001169                       # Number of seconds simulated
sim_ticks                                  1169026000                       # Number of ticks simulated
system.cpu.branchPred.BTBCorrect                    0                       # Number of correct BTB predictions (this stat may not work properly.
system.cpu.branchPred.BTBHitPct              0.000000                       # BTB Hit Percentage
system.cpu.branchPred.BTBHits                       0                       # Number of BTB hits
system.cpu.branchPred.BTBLookups               484108                       # Number of BTB lookups
system.cpu.branchPred.RASInCorrect                 23                       # Number of incorrect RAS predictions.
system.cpu.branchPred.condIncorrect             26440                       # Number of conditional branches incorrect
system.cpu.branchPred.condPredicted            509050                       # Number of conditional branches predicted
system.cpu.branchPred.indirectHits             262768                       # Number of indirect target hits.
system.cpu.branchPred.indirectLookups          484108                       # Number of indirect predictor lookups.
system.cpu.branchPred.indirectMisses           221340                       # Number of indirect misses.
system.cpu.branchPred.lookups                  545438                       # Number of BP lookups
system.cpu.branchPred.usedRAS                   16270                       # Number of times the RAS was used to get a target.
system.cpu.branchPredindirectMispredicted        14051                       # Number of mispredicted indirect branches.
system.cpu.cc_regfile_reads                   2544529                       # number of cc regfile reads
system.cpu.cc_regfile_writes                  2014148                       # number of cc regfile writes
system.cpu.commit.amos                              0                       # Number of atomic instructions committed
system.cpu.commit.branchMispredicts             26564                       # The number of times a branch was mispredicted
system.cpu.commit.branches                     391728                       # Number of branches committed
system.cpu.commit.bw_lim_events                664211                       # number cycles where commit BW limit reached
system.cpu.commit.commitNonSpecStalls             857                       # The number of times commit has been forced to stall to communicate backwards
system.cpu.commit.commitSquashedInsts          935690                       # The number of squashed insts skipped by commit
system.cpu.commit.committedInsts              2249076                       # Number of instructions committed
system.cpu.commit.committedOps                3961716                       # Number of ops (including micro ops) committed
system.cpu.commit.committed_per_cycle::samples      2494893                       # Number of insts commited each cycle
system.cpu.commit.committed_per_cycle::mean     1.587930                       # Number of insts commited each cycle
system.cpu.commit.committed_per_cycle::stdev     1.733420                       # Number of insts commited each cycle
system.cpu.commit.committed_per_cycle::underflows            0      0.00%      0.00% # Number of insts commited each cycle
system.cpu.commit.committed_per_cycle::0      1204743     48.29%     48.29% # Number of insts commited each cycle
system.cpu.commit.committed_per_cycle::1       195672      7.84%     56.13% # Number of insts commited each cycle
system.cpu.commit.committed_per_cycle::2       181601      7.28%     63.41% # Number of insts commited each cycle
system.cpu.commit.committed_per_cycle::3       248666      9.97%     73.38% # Number of insts commited each cycle
system.cpu.commit.committed_per_cycle::4       664211     26.62%    100.00% # Number of insts commited each cycle
system.cpu.commit.committed_per_cycle::overflows            0      0.00%    100.00% # Number of insts commited each cycle
system.cpu.commit.committed_per_cycle::min_value            0                       # Number of insts commited each cycle
system.cpu.commit.committed_per_cycle::max_value            4                       # Number of insts commited each cycle
system.cpu.commit.committed_per_cycle::total      2494893                       # Number of insts commited each cycle
system.cpu.commit.fp_insts                      75825                       # Number of committed floating point instructions.
system.cpu.commit.function_calls                14463                       # Number of function calls committed.
system.cpu.commit.int_insts                   3905599                       # Number of committed integer instructions.
system.cpu.commit.loads                        558395                       # Number of loads committed
system.cpu.commit.membars                           1                       # Number of memory barriers committed
system.cpu.commit.op_class_0::No_OpClass        20808      0.53%      0.53% # Class of committed instruction
system.cpu.commit.op_class_0::IntAlu          3098976     78.22%     78.75% # Class of committed instruction
system.cpu.commit.op_class_0::IntMult             654      0.02%     78.76% # Class of committed instruction
system.cpu.commit.op_class_0::IntDiv            38063      0.96%     79.73% # Class of committed instruction
system.cpu.commit.op_class_0::FloatAdd           2996      0.08%     79.80% # Class of committed instruction
system.cpu.commit.op_class_0::FloatCmp              0      0.00%     79.80% # Class of committed instruction
system.cpu.commit.op_class_0::FloatCvt           1376      0.03%     79.84% # Class of committed instruction
system.cpu.commit.op_class_0::FloatMult             0      0.00%     79.84% # Class of committed instruction
system.cpu.commit.op_class_0::FloatMultAcc            0      0.00%     79.84% # Class of committed instruction
system.cpu.commit.op_class_0::FloatDiv              0      0.00%     79.84% # Class of committed instruction
system.cpu.commit.op_class_0::FloatMisc             0      0.00%     79.84% # Class of committed instruction
system.cpu.commit.op_class_0::FloatSqrt             0      0.00%     79.84% # Class of committed instruction
system.cpu.commit.op_class_0::SimdAdd            6346      0.16%     80.00% # Class of committed instruction
system.cpu.commit.op_class_0::SimdAddAcc            0      0.00%     80.00% # Class of committed instruction
system.cpu.commit.op_class_0::SimdAlu           11415      0.29%     80.28% # Class of committed instruction
system.cpu.commit.op_class_0::SimdCmp               0      0.00%     80.28% # Class of committed instruction
system.cpu.commit.op_class_0::SimdCvt           12434      0.31%     80.60% # Class of committed instruction
system.cpu.commit.op_class_0::SimdMisc           6715      0.17%     80.77% # Class of committed instruction
system.cpu.commit.op_class_0::SimdMult              0      0.00%     80.77% # Class of committed instruction
system.cpu.commit.op_class_0::SimdMultAcc            0      0.00%     80.77% # Class of committed instruction
system.cpu.commit.op_class_0::SimdShift          1273      0.03%     80.80% # Class of committed instruction
system.cpu.commit.op_class_0::SimdShiftAcc            0      0.00%     80.80% # Class of committed instruction
system.cpu.commit.op_class_0::SimdDiv               0      0.00%     80.80% # Class of committed instruction
system.cpu.commit.op_class_0::SimdSqrt              0      0.00%     80.80% # Class of committed instruction
system.cpu.commit.op_class_0::SimdFloatAdd            0      0.00%     80.80% # Class of committed instruction
system.cpu.commit.op_class_0::SimdFloatAlu            0      0.00%     80.80% # Class of committed instruction
system.cpu.commit.op_class_0::SimdFloatCmp            0      0.00%     80.80% # Class of committed instruction
system.cpu.commit.op_class_0::SimdFloatCvt            0      0.00%     80.80% # Class of committed instruction
system.cpu.commit.op_class_0::SimdFloatDiv            0      0.00%     80.80% # Class of committed instruction
system.cpu.commit.op_class_0::SimdFloatMisc            0      0.00%     80.80% # Class of committed instruction
system.cpu.commit.op_class_0::SimdFloatMult            0      0.00%     80.80% # Class of committed instruction
system.cpu.commit.op_class_0::SimdFloatMultAcc            0      0.00%     80.80% # Class of committed instruction
system.cpu.commit.op_class_0::SimdFloatSqrt            0      0.00%     80.80% # Class of committed instruction
system.cpu.commit.op_class_0::SimdReduceAdd            0      0.00%     80.80% # Class of committed instruction
system.cpu.commit.op_class_0::SimdReduceAlu            0      0.00%     80.80% # Class of committed instruction
system.cpu.commit.op_class_0::SimdReduceCmp            0      0.00%     80.80% # Class of committed instruction
system.cpu.commit.op_class_0::SimdFloatReduceAdd            0      0.00%     80.80% # Class of committed instruction
system.cpu.commit.op_class_0::SimdFloatReduceCmp            0      0.00%     80.80% # Class of committed instruction
system.cpu.commit.op_class_0::SimdAes               0      0.00%     80.80% # Class of committed instruction
system.cpu.commit.op_class_0::SimdAesMix            0      0.00%     80.80% # Class of committed instruction
system.cpu.commit.op_class_0::SimdSha1Hash            0      0.00%     80.80% # Class of committed instruction
system.cpu.commit.op_class_0::SimdSha1Hash2            0      0.00%     80.80% # Class of committed instruction
system.cpu.commit.op_class_0::SimdSha256Hash            0      0.00%     80.80% # Class of committed instruction
system.cpu.commit.op_class_0::SimdSha256Hash2            0      0.00%     80.80% # Class of committed instruction
system.cpu.commit.op_class_0::SimdShaSigma2            0      0.00%     80.80% # Class of committed instruction
system.cpu.commit.op_class_0::SimdShaSigma3            0      0.00%     80.80% # Class of committed instruction
system.cpu.commit.op_class_0::SimdPredAlu            0      0.00%     80.80% # Class of committed instruction
system.cpu.commit.op_class_0::MemRead          538507     13.59%     94.39% # Class of committed instruction
system.cpu.commit.op_class_0::MemWrite         189766      4.79%     99.18% # Class of committed instruction
system.cpu.commit.op_class_0::FloatMemRead        19888      0.50%     99.68% # Class of committed instruction
system.cpu.commit.op_class_0::FloatMemWrite        12499      0.32%    100.00% # Class of committed instruction
system.cpu.commit.op_class_0::IprAccess             0      0.00%    100.00% # Class of committed instruction
system.cpu.commit.op_class_0::InstPrefetch            0      0.00%    100.00% # Class of committed instruction
system.cpu.commit.op_class_0::total           3961716                       # Class of committed instruction
system.cpu.commit.refs                         760660                       # Number of memory references committed
system.cpu.commit.swp_count                         0                       # Number of s/w prefetches committed
system.cpu.commit.vec_insts                         0                       # Number of committed Vector instructions.
system.cpu.committedInsts                     2249076                       # Number of Instructions Simulated
system.cpu.committedOps                       3961716                       # Number of Ops (including micro ops) Simulated
system.cpu.cpi                               1.299452                       # CPI: Cycles Per Instruction
system.cpu.cpi_total                         1.299452                       # CPI: Total CPI of All Threads
system.cpu.dcache.prefetcher.num_hwpf_issued         8120                       # number of hwpf issued
system.cpu.dcache.prefetcher.pfBufferHit        33762                       # number of redundant prefetches already in prefetch queue
system.cpu.dcache.prefetcher.pfIdentified        49129                       # number of prefetch candidates identified
system.cpu.dcache.prefetcher.pfInCache              0                       # number of redundant prefetches already in cache/mshr dropped
system.cpu.dcache.prefetcher.pfRemovedFull            0                       # number of prefetches dropped due to prefetch queue size
system.cpu.dcache.prefetcher.pfSpanPage          4759                       # number of prefetches that crossed the page
system.cpu.decode.BlockedCycles               1037274                       # Number of cycles decode is blocked
system.cpu.decode.DecodedInsts                5130660                       # Number of instructions handled by decode
system.cpu.decode.IdleCycles                   335943                       # Number of cycles decode is idle
system.cpu.decode.RunCycles                   1262914                       # Number of cycles decode is running
system.cpu.decode.SquashCycles                  26627                       # Number of cycles decode is squashing
system.cpu.decode.UnblockCycles                 88328                       # Number of cycles decode is unblocking
system.cpu.dtb.rdAccesses                      645631                       # TLB accesses on read requests
system.cpu.dtb.rdMisses                          2136                       # TLB misses on read requests
system.cpu.dtb.wrAccesses                      222628                       # TLB accesses on write requests
system.cpu.dtb.wrMisses                           148                       # TLB misses on write requests
system.cpu.fetch.Branches                      545438                       # Number of branches that fetch encountered
system.cpu.fetch.CacheLines                    277213                       # Number of cache lines fetched
system.cpu.fetch.Cycles                       2349569                       # Number of cycles fetch has run and was not squashing or blocked
system.cpu.fetch.IcacheSquashes                  5688                       # Number of outstanding Icache misses that were squashed
system.cpu.fetch.IcacheWaitRetryStallCycles           27                       # Number of stall cycles due to full MSHR
system.cpu.fetch.Insts                        3054186                       # Number of instructions fetch has processed
system.cpu.fetch.MiscStallCycles                  134                       # Number of cycles fetch has spent waiting on interrupts, or bad addresses, or out of MSHRs
system.cpu.fetch.PendingQuiesceStallCycles            9                       # Number of stall cycles due to pending quiesce instructions
system.cpu.fetch.PendingTrapStallCycles           966                       # Number of stall cycles due to pending traps
system.cpu.fetch.SquashCycles                   53254                       # Number of cycles fetch has spent squashing
system.cpu.fetch.branchRate                  0.186630                       # Number of branch fetches per cycle
system.cpu.fetch.icacheStallCycles             373754                       # Number of cycles fetch is stalled on an Icache miss
system.cpu.fetch.predictedBranches             279038                       # Number of branches that fetch has predicted taken
system.cpu.fetch.rate                        1.045036                       # Number of inst fetches per cycle
system.cpu.fetch.rateDist::samples            2751086                       # Number of instructions fetched each cycle (Total)
system.cpu.fetch.rateDist::mean              1.970076                       # Number of instructions fetched each cycle (Total)
system.cpu.fetch.rateDist::stdev             1.926743                       # Number of instructions fetched each cycle (Total)
system.cpu.fetch.rateDist::underflows               0      0.00%      0.00% # Number of instructions fetched each cycle (Total)
system.cpu.fetch.rateDist::0                  1277676     46.44%     46.44% # Number of instructions fetched each cycle (Total)
system.cpu.fetch.rateDist::1                    83066      3.02%     49.46% # Number of instructions fetched each cycle (Total)
system.cpu.fetch.rateDist::2                    67030      2.44%     51.90% # Number of instructions fetched each cycle (Total)
system.cpu.fetch.rateDist::3                    90534      3.29%     55.19% # Number of instructions fetched each cycle (Total)
system.cpu.fetch.rateDist::4                  1232780     44.81%    100.00% # Number of instructions fetched each cycle (Total)
system.cpu.fetch.rateDist::overflows                0      0.00%    100.00% # Number of instructions fetched each cycle (Total)
system.cpu.fetch.rateDist::min_value                0                       # Number of instructions fetched each cycle (Total)
system.cpu.fetch.rateDist::max_value                4                       # Number of instructions fetched each cycle (Total)
system.cpu.fetch.rateDist::total              2751086                       # Number of instructions fetched each cycle (Total)
system.cpu.fp_regfile_reads                    122985                       # number of floating regfile reads
system.cpu.fp_regfile_writes                    67851                       # number of floating regfile writes
system.cpu.fuPool.fu_ticks_busy::IntALU(0)    236903600                       # Total ticks fu was busy
system.cpu.fuPool.fu_ticks_busy::IntALU(1)    236903600                       # Total ticks fu was busy
system.cpu.fuPool.fu_ticks_busy::IntALU(2)    236903600                       # Total ticks fu was busy
system.cpu.fuPool.fu_ticks_busy::IntALU(3)    236903600                       # Total ticks fu was busy
system.cpu.fuPool.fu_ticks_busy::IntALU(4)    236903600                       # Total ticks fu was busy
system.cpu.fuPool.fu_ticks_busy::IntALU(5)    236903600                       # Total ticks fu was busy
system.cpu.fuPool.fu_ticks_busy::IntMultDiv(0)      8569200                       # Total ticks fu was busy
system.cpu.fuPool.fu_ticks_busy::IntMultDiv(1)      8568800                       # Total ticks fu was busy
system.cpu.fuPool.fu_ticks_busy::FP_ALU(0)       605600                       # Total ticks fu was busy
system.cpu.fuPool.fu_ticks_busy::FP_ALU(1)       605600                       # Total ticks fu was busy
system.cpu.fuPool.fu_ticks_busy::FP_ALU(2)       605200                       # Total ticks fu was busy
system.cpu.fuPool.fu_ticks_busy::FP_ALU(3)       605200                       # Total ticks fu was busy
system.cpu.fuPool.fu_ticks_busy::FP_MultDiv(0)            0                       # Total ticks fu was busy
system.cpu.fuPool.fu_ticks_busy::FP_MultDiv(1)            0                       # Total ticks fu was busy
system.cpu.fuPool.fu_ticks_busy::SIMD_Unit(0)      4498800                       # Total ticks fu was busy
system.cpu.fuPool.fu_ticks_busy::SIMD_Unit(1)      4482800                       # Total ticks fu was busy
system.cpu.fuPool.fu_ticks_busy::SIMD_Unit(2)      4696000                       # Total ticks fu was busy
system.cpu.fuPool.fu_ticks_busy::SIMD_Unit(3)      4714400                       # Total ticks fu was busy
system.cpu.fuPool.fu_ticks_busy::PredALU(0)            0                       # Total ticks fu was busy
system.cpu.fuPool.fu_ticks_busy::RdWrPort(0)     88425600                       # Total ticks fu was busy
system.cpu.fuPool.fu_ticks_busy::RdWrPort(1)     88458400                       # Total ticks fu was busy
system.cpu.fuPool.fu_ticks_busy::RdWrPort(2)     88470800                       # Total ticks fu was busy
system.cpu.fuPool.fu_ticks_busy::RdWrPort(3)     88406400                       # Total ticks fu was busy
system.cpu.fuPool.fu_ticks_busy::IprPort(0)            0                       # Total ticks fu was busy
system.cpu.fuPool.fu_ticks_busy::total     1813134400                       # Total ticks fu was busy
system.cpu.icache.prefetcher.num_hwpf_issued            0                       # number of hwpf issued
system.cpu.icache.prefetcher.pfBufferHit            0                       # number of redundant prefetches already in prefetch queue
system.cpu.icache.prefetcher.pfIdentified            0                       # number of prefetch candidates identified
system.cpu.icache.prefetcher.pfInCache              0                       # number of redundant prefetches already in cache/mshr dropped
system.cpu.icache.prefetcher.pfRemovedFull            0                       # number of prefetches dropped due to prefetch queue size
system.cpu.icache.prefetcher.pfSpanPage             0                       # number of prefetches that crossed the page
system.cpu.idleCycles                          171480                       # Total number of cycles that the CPU has spent unscheduled due to idling
system.cpu.iew.branchMispredicts                31234                       # Number of branch mispredicts detected at execute
system.cpu.iew.exec_branches                   423717                       # Number of branches executed
system.cpu.iew.exec_nop                             0                       # number of nop insts executed
system.cpu.iew.exec_rate                     1.547064                       # Inst execution rate
system.cpu.iew.exec_refs                       869782                       # number of memory reference insts executed
system.cpu.iew.exec_stores                     222612                       # Number of stores executed
system.cpu.iew.exec_swp                             0                       # number of swp insts executed
system.cpu.iew.iewBlockCycles                  702639                       # Number of cycles IEW is blocking
system.cpu.iew.iewDispLoadInsts                681778                       # Number of dispatched load instructions
system.cpu.iew.iewDispNonSpecInsts               1486                       # Number of dispatched non-speculative instructions
system.cpu.iew.iewDispSquashedInsts               616                       # Number of squashed instructions skipped by dispatch
system.cpu.iew.iewDispStoreInsts               235575                       # Number of dispatched store instructions
system.cpu.iew.iewDispatchedInsts             4897369                       # Number of instructions dispatched to IQ
system.cpu.iew.iewExecLoadInsts                647170                       # Number of load instructions executed
system.cpu.iew.iewExecSquashedInsts             39015                       # Number of squashed instructions skipped in execute
system.cpu.iew.iewExecutedInsts               4521396                       # Number of executed instructions
system.cpu.iew.iewIQFullEvents                   3283                       # Number of times the IQ has become full, causing a stall
system.cpu.iew.iewIdleCycles                        0                       # Number of cycles IEW is idle
system.cpu.iew.iewLSQFullEvents                  8964                       # Number of times the LSQ has become full, causing a stall
system.cpu.iew.iewSquashCycles                  26627                       # Number of cycles IEW is squashing
system.cpu.iew.iewUnblockCycles                 15125                       # Number of cycles IEW is unblocking
system.cpu.iew.lsq.thread0.blockedLoads             0                       # Number of blocked loads due to partial load-store forwarding
system.cpu.iew.lsq.thread0.cacheBlocked           573                       # Number of times an access to memory failed due to the cache being blocked
system.cpu.iew.lsq.thread0.forwLoads            41034                       # Number of loads that had data forwarded from stores
system.cpu.iew.lsq.thread0.ignoredResponses          290                       # Number of memory responses ignored because the instruction is squashed
system.cpu.iew.lsq.thread0.invAddrLoads             0                       # Number of loads ignored due to an invalid address
system.cpu.iew.lsq.thread0.invAddrSwpfs             0                       # Number of software prefetches ignored due to an invalid address
system.cpu.iew.lsq.thread0.memOrderViolation           73                       # Number of memory ordering violations
system.cpu.iew.lsq.thread0.rescheduledLoads            0                       # Number of loads that were rescheduled
system.cpu.iew.lsq.thread0.squashedLoads       123381                       # Number of loads squashed
system.cpu.iew.lsq.thread0.squashedStores        33309                       # Number of stores squashed
system.cpu.iew.memOrderViolationEvents             73                       # Number of memory order violations
system.cpu.iew.predictedNotTakenIncorrect        22716                       # Number of branches that were predicted not taken incorrectly
system.cpu.iew.predictedTakenIncorrect           8518                       # Number of branches that were predicted taken incorrectly
system.cpu.iew.wb_consumers                   6160794                       # num instructions consuming a value
system.cpu.iew.wb_count                       4497667                       # cumulative count of insts written-back
system.cpu.iew.wb_fanout                     0.573949                       # average fanout of values written-back
system.cpu.iew.wb_producers                   3535980                       # num instructions producing a value
system.cpu.iew.wb_rate                       1.538945                       # insts written-back per cycle
system.cpu.iew.wb_sent                        4505438                       # cumulative count of insts sent to commit
system.cpu.int_regfile_reads                  6994097                       # number of integer regfile reads
system.cpu.int_regfile_writes                 3859982                       # number of integer regfile writes
system.cpu.ipc                               0.769555                       # IPC: Instructions Per Cycle
system.cpu.ipc_total                         0.769555                       # IPC: Total IPC of All Threads
system.cpu.iq.FU_type_0::No_OpClass             27575      0.60%      0.60% # Type of FU issued
system.cpu.iq.FU_type_0::IntAlu               3553555     77.92%     78.53% # Type of FU issued
system.cpu.iq.FU_type_0::IntMult                  678      0.01%     78.54% # Type of FU issued
system.cpu.iq.FU_type_0::IntDiv                 42167      0.92%     79.47% # Type of FU issued
system.cpu.iq.FU_type_0::FloatAdd                4614      0.10%     79.57% # Type of FU issued
system.cpu.iq.FU_type_0::FloatCmp                   0      0.00%     79.57% # Type of FU issued
system.cpu.iq.FU_type_0::FloatCvt                1440      0.03%     79.60% # Type of FU issued
system.cpu.iq.FU_type_0::FloatMult                  0      0.00%     79.60% # Type of FU issued
system.cpu.iq.FU_type_0::FloatMultAcc               0      0.00%     79.60% # Type of FU issued
system.cpu.iq.FU_type_0::FloatDiv                   0      0.00%     79.60% # Type of FU issued
system.cpu.iq.FU_type_0::FloatMisc                  0      0.00%     79.60% # Type of FU issued
system.cpu.iq.FU_type_0::FloatSqrt                  0      0.00%     79.60% # Type of FU issued
system.cpu.iq.FU_type_0::SimdAdd                 6966      0.15%     79.75% # Type of FU issued
system.cpu.iq.FU_type_0::SimdAddAcc                 0      0.00%     79.75% # Type of FU issued
system.cpu.iq.FU_type_0::SimdAlu                15155      0.33%     80.08% # Type of FU issued
system.cpu.iq.FU_type_0::SimdCmp                    0      0.00%     80.08% # Type of FU issued
system.cpu.iq.FU_type_0::SimdCvt                14177      0.31%     80.39% # Type of FU issued
system.cpu.iq.FU_type_0::SimdMisc                7291      0.16%     80.55% # Type of FU issued
system.cpu.iq.FU_type_0::SimdMult                   0      0.00%     80.55% # Type of FU issued
system.cpu.iq.FU_type_0::SimdMultAcc                0      0.00%     80.55% # Type of FU issued
system.cpu.iq.FU_type_0::SimdShift               2391      0.05%     80.61% # Type of FU issued
system.cpu.iq.FU_type_0::SimdShiftAcc               0      0.00%     80.61% # Type of FU issued
system.cpu.iq.FU_type_0::SimdDiv                    0      0.00%     80.61% # Type of FU issued
system.cpu.iq.FU_type_0::SimdSqrt                   0      0.00%     80.61% # Type of FU issued
system.cpu.iq.FU_type_0::SimdFloatAdd               0      0.00%     80.61% # Type of FU issued
system.cpu.iq.FU_type_0::SimdFloatAlu               0      0.00%     80.61% # Type of FU issued
system.cpu.iq.FU_type_0::SimdFloatCmp               0      0.00%     80.61% # Type of FU issued
system.cpu.iq.FU_type_0::SimdFloatCvt               0      0.00%     80.61% # Type of FU issued
system.cpu.iq.FU_type_0::SimdFloatDiv               0      0.00%     80.61% # Type of FU issued
system.cpu.iq.FU_type_0::SimdFloatMisc              0      0.00%     80.61% # Type of FU issued
system.cpu.iq.FU_type_0::SimdFloatMult              0      0.00%     80.61% # Type of FU issued
system.cpu.iq.FU_type_0::SimdFloatMultAcc            0      0.00%     80.61% # Type of FU issued
system.cpu.iq.FU_type_0::SimdFloatSqrt              0      0.00%     80.61% # Type of FU issued
system.cpu.iq.FU_type_0::SimdReduceAdd              0      0.00%     80.61% # Type of FU issued
system.cpu.iq.FU_type_0::SimdReduceAlu              0      0.00%     80.61% # Type of FU issued
system.cpu.iq.FU_type_0::SimdReduceCmp              0      0.00%     80.61% # Type of FU issued
system.cpu.iq.FU_type_0::SimdFloatReduceAdd            0      0.00%     80.61% # Type of FU issued
system.cpu.iq.FU_type_0::SimdFloatReduceCmp            0      0.00%     80.61% # Type of FU issued
system.cpu.iq.FU_type_0::SimdAes                    0      0.00%     80.61% # Type of FU issued
system.cpu.iq.FU_type_0::SimdAesMix                 0      0.00%     80.61% # Type of FU issued
system.cpu.iq.FU_type_0::SimdSha1Hash               0      0.00%     80.61% # Type of FU issued
system.cpu.iq.FU_type_0::SimdSha1Hash2              0      0.00%     80.61% # Type of FU issued
system.cpu.iq.FU_type_0::SimdSha256Hash             0      0.00%     80.61% # Type of FU issued
system.cpu.iq.FU_type_0::SimdSha256Hash2            0      0.00%     80.61% # Type of FU issued
system.cpu.iq.FU_type_0::SimdShaSigma2              0      0.00%     80.61% # Type of FU issued
system.cpu.iq.FU_type_0::SimdShaSigma3              0      0.00%     80.61% # Type of FU issued
system.cpu.iq.FU_type_0::SimdPredAlu                0      0.00%     80.61% # Type of FU issued
system.cpu.iq.FU_type_0::MemRead               632504     13.87%     94.48% # Type of FU issued
system.cpu.iq.FU_type_0::MemWrite              212032      4.65%     99.13% # Type of FU issued
system.cpu.iq.FU_type_0::FloatMemRead           26065      0.57%     99.70% # Type of FU issued
system.cpu.iq.FU_type_0::FloatMemWrite          13804      0.30%    100.00% # Type of FU issued
system.cpu.iq.FU_type_0::IprAccess                  0      0.00%    100.00% # Type of FU issued
system.cpu.iq.FU_type_0::InstPrefetch               0      0.00%    100.00% # Type of FU issued
system.cpu.iq.FU_type_0::total                4560414                       # Type of FU issued
system.cpu.iq.fp_alu_accesses                   92984                       # Number of floating point alu accesses
system.cpu.iq.fp_inst_queue_reads              187331                       # Number of floating instruction queue reads
system.cpu.iq.fp_inst_queue_wakeup_accesses        89281                       # Number of floating instruction queue wakeup accesses
system.cpu.iq.fp_inst_queue_writes             136357                       # Number of floating instruction queue writes
system.cpu.iq.fu_busy_cnt                           0                       # FU busy when requested
system.cpu.iq.fu_busy_rate                          0                       # FU busy rate (busy events/executed inst)
system.cpu.iq.fu_full::No_OpClass                   0                       # attempts to use FU when none available
system.cpu.iq.fu_full::IntAlu                       0                       # attempts to use FU when none available
system.cpu.iq.fu_full::IntMult                      0                       # attempts to use FU when none available
system.cpu.iq.fu_full::IntDiv                       0                       # attempts to use FU when none available
system.cpu.iq.fu_full::FloatAdd                     0                       # attempts to use FU when none available
system.cpu.iq.fu_full::FloatCmp                     0                       # attempts to use FU when none available
system.cpu.iq.fu_full::FloatCvt                     0                       # attempts to use FU when none available
system.cpu.iq.fu_full::FloatMult                    0                       # attempts to use FU when none available
system.cpu.iq.fu_full::FloatMultAcc                 0                       # attempts to use FU when none available
system.cpu.iq.fu_full::FloatDiv                     0                       # attempts to use FU when none available
system.cpu.iq.fu_full::FloatMisc                    0                       # attempts to use FU when none available
system.cpu.iq.fu_full::FloatSqrt                    0                       # attempts to use FU when none available
system.cpu.iq.fu_full::SimdAdd                      0                       # attempts to use FU when none available
system.cpu.iq.fu_full::SimdAddAcc                   0                       # attempts to use FU when none available
system.cpu.iq.fu_full::SimdAlu                      0                       # attempts to use FU when none available
system.cpu.iq.fu_full::SimdCmp                      0                       # attempts to use FU when none available
system.cpu.iq.fu_full::SimdCvt                      0                       # attempts to use FU when none available
system.cpu.iq.fu_full::SimdMisc                     0                       # attempts to use FU when none available
system.cpu.iq.fu_full::SimdMult                     0                       # attempts to use FU when none available
system.cpu.iq.fu_full::SimdMultAcc                  0                       # attempts to use FU when none available
system.cpu.iq.fu_full::SimdShift                    0                       # attempts to use FU when none available
system.cpu.iq.fu_full::SimdShiftAcc                 0                       # attempts to use FU when none available
system.cpu.iq.fu_full::SimdDiv                      0                       # attempts to use FU when none available
system.cpu.iq.fu_full::SimdSqrt                     0                       # attempts to use FU when none available
system.cpu.iq.fu_full::SimdFloatAdd                 0                       # attempts to use FU when none available
system.cpu.iq.fu_full::SimdFloatAlu                 0                       # attempts to use FU when none available
system.cpu.iq.fu_full::SimdFloatCmp                 0                       # attempts to use FU when none available
system.cpu.iq.fu_full::SimdFloatCvt                 0                       # attempts to use FU when none available
system.cpu.iq.fu_full::SimdFloatDiv                 0                       # attempts to use FU when none available
system.cpu.iq.fu_full::SimdFloatMisc                0                       # attempts to use FU when none available
system.cpu.iq.fu_full::SimdFloatMult                0                       # attempts to use FU when none available
system.cpu.iq.fu_full::SimdFloatMultAcc             0                       # attempts to use FU when none available
system.cpu.iq.fu_full::SimdFloatSqrt                0                       # attempts to use FU when none available
system.cpu.iq.fu_full::SimdReduceAdd                0                       # attempts to use FU when none available
system.cpu.iq.fu_full::SimdReduceAlu                0                       # attempts to use FU when none available
system.cpu.iq.fu_full::SimdReduceCmp                0                       # attempts to use FU when none available
system.cpu.iq.fu_full::SimdFloatReduceAdd            0                       # attempts to use FU when none available
system.cpu.iq.fu_full::SimdFloatReduceCmp            0                       # attempts to use FU when none available
system.cpu.iq.fu_full::SimdAes                      0                       # attempts to use FU when none available
system.cpu.iq.fu_full::SimdAesMix                   0                       # attempts to use FU when none available
system.cpu.iq.fu_full::SimdSha1Hash                 0                       # attempts to use FU when none available
system.cpu.iq.fu_full::SimdSha1Hash2                0                       # attempts to use FU when none available
system.cpu.iq.fu_full::SimdSha256Hash               0                       # attempts to use FU when none available
system.cpu.iq.fu_full::SimdSha256Hash2              0                       # attempts to use FU when none available
system.cpu.iq.fu_full::SimdShaSigma2                0                       # attempts to use FU when none available
system.cpu.iq.fu_full::SimdShaSigma3                0                       # attempts to use FU when none available
system.cpu.iq.fu_full::SimdPredAlu                  0                       # attempts to use FU when none available
system.cpu.iq.fu_full::MemRead                      0                       # attempts to use FU when none available
system.cpu.iq.fu_full::MemWrite                     0                       # attempts to use FU when none available
system.cpu.iq.fu_full::FloatMemRead                 0                       # attempts to use FU when none available
system.cpu.iq.fu_full::FloatMemWrite                0                       # attempts to use FU when none available
system.cpu.iq.fu_full::IprAccess                    0                       # attempts to use FU when none available
system.cpu.iq.fu_full::InstPrefetch                 0                       # attempts to use FU when none available
system.cpu.iq.int_alu_accesses                4439855                       # Number of integer alu accesses
system.cpu.iq.int_inst_queue_reads           11704012                       # Number of integer instruction queue reads
system.cpu.iq.int_inst_queue_wakeup_accesses      4408386                       # Number of integer instruction queue wakeup accesses
system.cpu.iq.int_inst_queue_writes           5696726                       # Number of integer instruction queue writes
system.cpu.iq.iqInstsAdded                    4894855                       # Number of instructions added to the IQ (excludes non-spec)
system.cpu.iq.iqInstsIssued                   4560414                       # Number of instructions issued
system.cpu.iq.iqNonSpecInstsAdded                2514                       # Number of non-speculative instructions added to the IQ
system.cpu.iq.iqSquashedInstsExamined          935642                       # Number of squashed instructions iterated over during squash; mainly for profiling
system.cpu.iq.iqSquashedInstsIssued             19432                       # Number of squashed instructions issued
system.cpu.iq.iqSquashedNonSpecRemoved           1657                       # Number of squashed non-spec instructions that were removed
system.cpu.iq.iqSquashedOperandsExamined      1393503                       # Number of squashed operands that are examined and possibly removed from graph
system.cpu.iq.issued_per_cycle::samples       2751086                       # Number of insts issued each cycle
system.cpu.iq.issued_per_cycle::mean         1.657678                       # Number of insts issued each cycle
system.cpu.iq.issued_per_cycle::stdev        1.668741                       # Number of insts issued each cycle
system.cpu.iq.issued_per_cycle::underflows            0      0.00%      0.00% # Number of insts issued each cycle
system.cpu.iq.issued_per_cycle::0             1208018     43.91%     43.91% # Number of insts issued each cycle
system.cpu.iq.issued_per_cycle::1              192567      7.00%     50.91% # Number of insts issued each cycle
system.cpu.iq.issued_per_cycle::2              329576     11.98%     62.89% # Number of insts issued each cycle
system.cpu.iq.issued_per_cycle::3              375005     13.63%     76.52% # Number of insts issued each cycle
system.cpu.iq.issued_per_cycle::4              645920     23.48%    100.00% # Number of insts issued each cycle
system.cpu.iq.issued_per_cycle::overflows            0      0.00%    100.00% # Number of insts issued each cycle
system.cpu.iq.issued_per_cycle::min_value            0                       # Number of insts issued each cycle
system.cpu.iq.issued_per_cycle::max_value            4                       # Number of insts issued each cycle
system.cpu.iq.issued_per_cycle::total         2751086                       # Number of insts issued each cycle
system.cpu.iq.rate                           1.560414                       # Inst issue rate
system.cpu.iq.vec_alu_accesses                      0                       # Number of vector alu accesses
system.cpu.iq.vec_inst_queue_reads                  0                       # Number of vector instruction queue reads
system.cpu.iq.vec_inst_queue_wakeup_accesses            0                       # Number of vector instruction queue wakeup accesses
system.cpu.iq.vec_inst_queue_writes                 0                       # Number of vector instruction queue writes
system.cpu.itb.rdAccesses                           0                       # TLB accesses on read requests
system.cpu.itb.rdMisses                             0                       # TLB misses on read requests
system.cpu.itb.wrAccesses                      277356                       # TLB accesses on write requests
system.cpu.itb.wrMisses                           407                       # TLB misses on write requests
system.cpu.memDep0.conflictingLoads             14231                       # Number of conflicting loads.
system.cpu.memDep0.conflictingStores             7420                       # Number of conflicting stores.
system.cpu.memDep0.insertedLoads               681778                       # Number of loads inserted to the mem dependence unit.
system.cpu.memDep0.insertedStores              235575                       # Number of stores inserted to the mem dependence unit.
system.cpu.misc_regfile_reads                 1753683                       # number of misc regfile reads
system.cpu.misc_regfile_writes                    774                       # number of misc regfile writes
system.cpu.numCycles                          2922566                       # number of cpu cycles simulated
system.cpu.numWorkItemsCompleted                    0                       # number of work items this cpu completed
system.cpu.numWorkItemsStarted                      0                       # number of work items this cpu started
system.cpu.process.numSyscalls                     82                       # Number of system calls
system.cpu.rename.BlockCycles                  848625                       # Number of cycles rename is blocking
system.cpu.rename.CommittedMaps               5287233                       # Number of HB maps that are committed
system.cpu.rename.FullRegisterEvents               27                       # Number of times there has been no free registers
system.cpu.rename.IQFullEvents                  43610                       # Number of times rename has blocked due to IQ full
system.cpu.rename.IdleCycles                   387044                       # Number of cycles rename is idle
system.cpu.rename.LQFullEvents                  17620                       # Number of times rename has blocked due to LQ full
system.cpu.rename.ROBFullEvents                  4639                       # Number of times rename has blocked due to ROB full
system.cpu.rename.RenameLookups              13147704                       # Number of register rename lookups that rename has made
system.cpu.rename.RenamedInsts                5047741                       # Number of instructions processed by rename
system.cpu.rename.RenamedOperands             6746017                       # Number of destination operands rename has renamed
system.cpu.rename.RunCycles                   1291841                       # Number of cycles rename is running
system.cpu.rename.SQFullEvents                  76973                       # Number of times rename has blocked due to SQ full
system.cpu.rename.SquashCycles                  26627                       # Number of cycles rename is squashing
system.cpu.rename.UnblockCycles                174518                       # Number of cycles rename is unblocking
system.cpu.rename.UndoneMaps                  1458761                       # Number of HB maps that are undone due to squashing
system.cpu.rename.fp_rename_lookups            160486                       # Number of floating rename lookups
system.cpu.rename.int_rename_lookups          7992038                       # Number of integer rename lookups
system.cpu.rename.serializeStallCycles          22431                       # count of cycles rename stalled for serializing inst
system.cpu.rename.serializingInsts               1008                       # count of serializing insts renamed
system.cpu.rename.skidInsts                    200211                       # count of insts added to the skid buffer
system.cpu.rename.tempSerializingInsts           1070                       # count of temporary serializing insts renamed
system.cpu.rob.rob_reads                      6728088                       # The number of ROB reads
system.cpu.rob.rob_writes                    10051997                       # The number of ROB writes
system.cpu.timesIdled                            1742                       # Number of times that the entire CPU went into an idle state and unscheduled itself
system.l2bus.snoop_filter.hit_multi_requests           19                       # Number of requests hitting in the snoop filter with multiple (>1) holders of the requested data.
system.l2bus.snoop_filter.hit_multi_snoops            1                       # Number of snoops hitting in the snoop filter with multiple (>1) holders of the requested data.
system.l2bus.snoop_filter.hit_single_requests        18827                       # Number of requests hitting in the snoop filter with a single holder of the requested data.
system.l2bus.snoop_filter.hit_single_snoops          431                       # Number of snoops hitting in the snoop filter with a single holder of the requested data.
system.l2bus.snoop_filter.tot_requests          38930                       # Total number of requests made to the snoop filter.
system.l2bus.snoop_filter.tot_snoops              432                       # Total number of snoops made to the snoop filter.
system.l2cache.prefetcher.num_hwpf_issued          639                       # number of hwpf issued
system.l2cache.prefetcher.pfBufferHit               0                       # number of redundant prefetches already in prefetch queue
system.l2cache.prefetcher.pfIdentified            639                       # number of prefetch candidates identified
system.l2cache.prefetcher.pfInCache                 0                       # number of redundant prefetches already in cache/mshr dropped
system.l2cache.prefetcher.pfRemovedFull             0                       # number of prefetches dropped due to prefetch queue size
system.l2cache.prefetcher.pfSpanPage               93                       # number of prefetches that crossed the page
system.membus.snoop_filter.hit_multi_requests            0                       # Number of requests hitting in the snoop filter with multiple (>1) holders of the requested data.
system.membus.snoop_filter.hit_multi_snoops            0                       # Number of snoops hitting in the snoop filter with multiple (>1) holders of the requested data.
system.membus.snoop_filter.hit_single_requests         9518                       # Number of requests hitting in the snoop filter with a single holder of the requested data.
system.membus.snoop_filter.hit_single_snoops            0                       # Number of snoops hitting in the snoop filter with a single holder of the requested data.
system.membus.snoop_filter.tot_requests         23158                       # Total number of requests made to the snoop filter.
system.membus.snoop_filter.tot_snoops               0                       # Total number of snoops made to the snoop filter.
system.membus.pwrStateResidencyTicks::UNDEFINED   1169026000                       # Cumulative time (in ticks) in various power states
system.membus.trans_dist::ReadResp              12323                       # Transaction distribution
system.membus.trans_dist::WritebackDirty         1348                       # Transaction distribution
system.membus.trans_dist::CleanEvict             8170                       # Transaction distribution
system.membus.trans_dist::ReadExReq              1317                       # Transaction distribution
system.membus.trans_dist::ReadExResp             1317                       # Transaction distribution
system.membus.trans_dist::ReadSharedReq         12323                       # Transaction distribution
system.membus.pkt_count_system.l2cache.mem_side::system.mem_ctrl.port        36798                       # Packet count per connected master and slave (bytes)
system.membus.pkt_count_system.l2cache.mem_side::total        36798                       # Packet count per connected master and slave (bytes)
system.membus.pkt_count::total                  36798                       # Packet count per connected master and slave (bytes)
system.membus.pkt_size_system.l2cache.mem_side::system.mem_ctrl.port       959232                       # Cumulative packet size per connected master and slave (bytes)
system.membus.pkt_size_system.l2cache.mem_side::total       959232                       # Cumulative packet size per connected master and slave (bytes)
system.membus.pkt_size::total                  959232                       # Cumulative packet size per connected master and slave (bytes)
system.membus.snoops                                0                       # Total snoops (count)
system.membus.snoopTraffic                          0                       # Total snoop traffic (bytes)
system.membus.snoop_fanout::samples             13640                       # Request fanout histogram
system.membus.snoop_fanout::mean                    0                       # Request fanout histogram
system.membus.snoop_fanout::stdev                   0                       # Request fanout histogram
system.membus.snoop_fanout::underflows              0      0.00%      0.00% # Request fanout histogram
system.membus.snoop_fanout::0                   13640    100.00%    100.00% # Request fanout histogram
system.membus.snoop_fanout::1                       0      0.00%    100.00% # Request fanout histogram
system.membus.snoop_fanout::overflows               0      0.00%    100.00% # Request fanout histogram
system.membus.snoop_fanout::min_value               0                       # Request fanout histogram
system.membus.snoop_fanout::max_value               0                       # Request fanout histogram
system.membus.snoop_fanout::total               13640                       # Request fanout histogram
system.membus.reqLayer2.occupancy            11441040                       # Layer occupancy (ticks)
system.membus.reqLayer2.utilization               1.0                       # Layer utilization (%)
system.membus.respLayer0.occupancy           29611860                       # Layer occupancy (ticks)
system.membus.respLayer0.utilization              2.5                       # Layer utilization (%)
system.l2bus.pwrStateResidencyTicks::UNDEFINED   1169026000                       # Cumulative time (in ticks) in various power states
system.l2bus.trans_dist::ReadResp               18063                       # Transaction distribution
system.l2bus.trans_dist::WritebackDirty          4148                       # Transaction distribution
system.l2bus.trans_dist::CleanEvict             24281                       # Transaction distribution
system.l2bus.trans_dist::HardPFReq                931                       # Transaction distribution
system.l2bus.trans_dist::UpgradeReq                 1                       # Transaction distribution
system.l2bus.trans_dist::UpgradeResp                1                       # Transaction distribution
system.l2bus.trans_dist::ReadExReq               2042                       # Transaction distribution
system.l2bus.trans_dist::ReadExResp              2042                       # Transaction distribution
system.l2bus.trans_dist::ReadSharedReq          18063                       # Transaction distribution
system.l2bus.pkt_count_system.cpu.icache.mem_side::system.l2cache.cpu_side         9056                       # Packet count per connected master and slave (bytes)
system.l2bus.pkt_count_system.cpu.dcache.mem_side::system.l2cache.cpu_side        49978                       # Packet count per connected master and slave (bytes)
system.l2bus.pkt_count::total                   59034                       # Packet count per connected master and slave (bytes)
system.l2bus.pkt_size_system.cpu.icache.mem_side::system.l2cache.cpu_side       198592                       # Cumulative packet size per connected master and slave (bytes)
system.l2bus.pkt_size_system.cpu.dcache.mem_side::system.l2cache.cpu_side      1267200                       # Cumulative packet size per connected master and slave (bytes)
system.l2bus.pkt_size::total                  1465792                       # Cumulative packet size per connected master and slave (bytes)
system.l2bus.snoops                             10538                       # Total snoops (count)
system.l2bus.snoopTraffic                       86400                       # Total snoop traffic (bytes)
system.l2bus.snoop_fanout::samples              30642                       # Request fanout histogram
system.l2bus.snoop_fanout::mean              0.014849                       # Request fanout histogram
system.l2bus.snoop_fanout::stdev             0.121219                       # Request fanout histogram
system.l2bus.snoop_fanout::underflows               0      0.00%      0.00% # Request fanout histogram
system.l2bus.snoop_fanout::0                    30188     98.52%     98.52% # Request fanout histogram
system.l2bus.snoop_fanout::1                      453      1.48%    100.00% # Request fanout histogram
system.l2bus.snoop_fanout::2                        1      0.00%    100.00% # Request fanout histogram
system.l2bus.snoop_fanout::overflows                0      0.00%    100.00% # Request fanout histogram
system.l2bus.snoop_fanout::min_value                0                       # Request fanout histogram
system.l2bus.snoop_fanout::max_value                2                       # Request fanout histogram
system.l2bus.snoop_fanout::total                30642                       # Request fanout histogram
system.l2bus.respLayer1.occupancy            20401198                       # Layer occupancy (ticks)
system.l2bus.respLayer1.utilization               1.7                       # Layer utilization (%)
system.l2bus.reqLayer0.occupancy             19252296                       # Layer occupancy (ticks)
system.l2bus.reqLayer0.utilization                1.6                       # Layer utilization (%)
system.l2bus.respLayer0.occupancy             3726798                       # Layer occupancy (ticks)
system.l2bus.respLayer0.utilization               0.3                       # Layer utilization (%)
system.clk_domain.clock                           400                       # Clock period in ticks
system.clk_domain.voltage_domain.voltage            1                       # Voltage in Volts
system.cpu.pwrStateResidencyTicks::ON      1169026000                       # Cumulative time (in ticks) in various power states
system.cpu.icache.pwrStateResidencyTicks::UNDEFINED   1169026000                       # Cumulative time (in ticks) in various power states
system.cpu.icache.demand_hits::.cpu.inst       273386                       # number of demand (read+write) hits
system.cpu.icache.demand_hits::total           273386                       # number of demand (read+write) hits
system.cpu.icache.overall_hits::.cpu.inst       273386                       # number of overall hits
system.cpu.icache.overall_hits::total          273386                       # number of overall hits
system.cpu.icache.demand_misses::.cpu.inst         3827                       # number of demand (read+write) misses
system.cpu.icache.demand_misses::total           3827                       # number of demand (read+write) misses
system.cpu.icache.overall_misses::.cpu.inst         3827                       # number of overall misses
system.cpu.icache.overall_misses::total          3827                       # number of overall misses
system.cpu.icache.demand_miss_latency::.cpu.inst    186743599                       # number of demand (read+write) miss cycles
system.cpu.icache.demand_miss_latency::total    186743599                       # number of demand (read+write) miss cycles
system.cpu.icache.overall_miss_latency::.cpu.inst    186743599                       # number of overall miss cycles
system.cpu.icache.overall_miss_latency::total    186743599                       # number of overall miss cycles
system.cpu.icache.demand_accesses::.cpu.inst       277213                       # number of demand (read+write) accesses
system.cpu.icache.demand_accesses::total       277213                       # number of demand (read+write) accesses
system.cpu.icache.overall_accesses::.cpu.inst       277213                       # number of overall (read+write) accesses
system.cpu.icache.overall_accesses::total       277213                       # number of overall (read+write) accesses
system.cpu.icache.demand_miss_rate::.cpu.inst     0.013805                       # miss rate for demand accesses
system.cpu.icache.demand_miss_rate::total     0.013805                       # miss rate for demand accesses
system.cpu.icache.overall_miss_rate::.cpu.inst     0.013805                       # miss rate for overall accesses
system.cpu.icache.overall_miss_rate::total     0.013805                       # miss rate for overall accesses
system.cpu.icache.demand_avg_miss_latency::.cpu.inst 48796.341521                       # average overall miss latency
system.cpu.icache.demand_avg_miss_latency::total 48796.341521                       # average overall miss latency
system.cpu.icache.overall_avg_miss_latency::.cpu.inst 48796.341521                       # average overall miss latency
system.cpu.icache.overall_avg_miss_latency::total 48796.341521                       # average overall miss latency
system.cpu.icache.blocked_cycles::no_mshrs          261                       # number of cycles access was blocked
system.cpu.icache.blocked_cycles::no_targets            0                       # number of cycles access was blocked
system.cpu.icache.blocked::no_mshrs                 7                       # number of cycles access was blocked
system.cpu.icache.blocked::no_targets               0                       # number of cycles access was blocked
system.cpu.icache.avg_blocked_cycles::no_mshrs    37.285714                       # average number of cycles each access was blocked
system.cpu.icache.avg_blocked_cycles::no_targets          nan                       # average number of cycles each access was blocked
system.cpu.icache.demand_mshr_hits::.cpu.inst          722                       # number of demand (read+write) MSHR hits
system.cpu.icache.demand_mshr_hits::total          722                       # number of demand (read+write) MSHR hits
system.cpu.icache.overall_mshr_hits::.cpu.inst          722                       # number of overall MSHR hits
system.cpu.icache.overall_mshr_hits::total          722                       # number of overall MSHR hits
system.cpu.icache.demand_mshr_misses::.cpu.inst         3105                       # number of demand (read+write) MSHR misses
system.cpu.icache.demand_mshr_misses::total         3105                       # number of demand (read+write) MSHR misses
system.cpu.icache.overall_mshr_misses::.cpu.inst         3105                       # number of overall MSHR misses
system.cpu.icache.overall_mshr_misses::total         3105                       # number of overall MSHR misses
system.cpu.icache.demand_mshr_miss_latency::.cpu.inst    151087999                       # number of demand (read+write) MSHR miss cycles
system.cpu.icache.demand_mshr_miss_latency::total    151087999                       # number of demand (read+write) MSHR miss cycles
system.cpu.icache.overall_mshr_miss_latency::.cpu.inst    151087999                       # number of overall MSHR miss cycles
system.cpu.icache.overall_mshr_miss_latency::total    151087999                       # number of overall MSHR miss cycles
system.cpu.icache.demand_mshr_miss_rate::.cpu.inst     0.011201                       # mshr miss rate for demand accesses
system.cpu.icache.demand_mshr_miss_rate::total     0.011201                       # mshr miss rate for demand accesses
system.cpu.icache.overall_mshr_miss_rate::.cpu.inst     0.011201                       # mshr miss rate for overall accesses
system.cpu.icache.overall_mshr_miss_rate::total     0.011201                       # mshr miss rate for overall accesses
system.cpu.icache.demand_avg_mshr_miss_latency::.cpu.inst 48659.580998                       # average overall mshr miss latency
system.cpu.icache.demand_avg_mshr_miss_latency::total 48659.580998                       # average overall mshr miss latency
system.cpu.icache.overall_avg_mshr_miss_latency::.cpu.inst 48659.580998                       # average overall mshr miss latency
system.cpu.icache.overall_avg_mshr_miss_latency::total 48659.580998                       # average overall mshr miss latency
system.cpu.icache.replacements                   2848                       # number of replacements
system.cpu.icache.ReadReq_hits::.cpu.inst       273386                       # number of ReadReq hits
system.cpu.icache.ReadReq_hits::total          273386                       # number of ReadReq hits
system.cpu.icache.ReadReq_misses::.cpu.inst         3827                       # number of ReadReq misses
system.cpu.icache.ReadReq_misses::total          3827                       # number of ReadReq misses
system.cpu.icache.ReadReq_miss_latency::.cpu.inst    186743599                       # number of ReadReq miss cycles
system.cpu.icache.ReadReq_miss_latency::total    186743599                       # number of ReadReq miss cycles
system.cpu.icache.ReadReq_accesses::.cpu.inst       277213                       # number of ReadReq accesses(hits+misses)
system.cpu.icache.ReadReq_accesses::total       277213                       # number of ReadReq accesses(hits+misses)
system.cpu.icache.ReadReq_miss_rate::.cpu.inst     0.013805                       # miss rate for ReadReq accesses
system.cpu.icache.ReadReq_miss_rate::total     0.013805                       # miss rate for ReadReq accesses
system.cpu.icache.ReadReq_avg_miss_latency::.cpu.inst 48796.341521                       # average ReadReq miss latency
system.cpu.icache.ReadReq_avg_miss_latency::total 48796.341521                       # average ReadReq miss latency
system.cpu.icache.ReadReq_mshr_hits::.cpu.inst          722                       # number of ReadReq MSHR hits
system.cpu.icache.ReadReq_mshr_hits::total          722                       # number of ReadReq MSHR hits
system.cpu.icache.ReadReq_mshr_misses::.cpu.inst         3105                       # number of ReadReq MSHR misses
system.cpu.icache.ReadReq_mshr_misses::total         3105                       # number of ReadReq MSHR misses
system.cpu.icache.ReadReq_mshr_miss_latency::.cpu.inst    151087999                       # number of ReadReq MSHR miss cycles
system.cpu.icache.ReadReq_mshr_miss_latency::total    151087999                       # number of ReadReq MSHR miss cycles
system.cpu.icache.ReadReq_mshr_miss_rate::.cpu.inst     0.011201                       # mshr miss rate for ReadReq accesses
system.cpu.icache.ReadReq_mshr_miss_rate::total     0.011201                       # mshr miss rate for ReadReq accesses
system.cpu.icache.ReadReq_avg_mshr_miss_latency::.cpu.inst 48659.580998                       # average ReadReq mshr miss latency
system.cpu.icache.ReadReq_avg_mshr_miss_latency::total 48659.580998                       # average ReadReq mshr miss latency
system.cpu.icache.prefetcher.pwrStateResidencyTicks::UNDEFINED   1169026000                       # Cumulative time (in ticks) in various power states
system.cpu.icache.tags.pwrStateResidencyTicks::UNDEFINED   1169026000                       # Cumulative time (in ticks) in various power states
system.cpu.icache.tags.tagsinuse           253.651844                       # Cycle average of tags in use
system.cpu.icache.tags.total_refs              240961                       # Total number of references to valid blocks.
system.cpu.icache.tags.sampled_refs              2849                       # Sample count of references to valid blocks.
system.cpu.icache.tags.avg_refs             84.577396                       # Average number of references to valid blocks.
system.cpu.icache.tags.warmup_cycle             66400                       # Cycle when the warmup percentage was hit.
system.cpu.icache.tags.occ_blocks::.cpu.inst   253.651844                       # Average occupied blocks per requestor
system.cpu.icache.tags.occ_percent::.cpu.inst     0.990828                       # Average percentage of cache occupancy
system.cpu.icache.tags.occ_percent::total     0.990828                       # Average percentage of cache occupancy
system.cpu.icache.tags.occ_task_id_blocks::1024          256                       # Occupied blocks per task id
system.cpu.icache.tags.age_task_id_blocks_1024::0           73                       # Occupied blocks per task id
system.cpu.icache.tags.age_task_id_blocks_1024::1          140                       # Occupied blocks per task id
system.cpu.icache.tags.age_task_id_blocks_1024::2           39                       # Occupied blocks per task id
system.cpu.icache.tags.age_task_id_blocks_1024::3            4                       # Occupied blocks per task id
system.cpu.icache.tags.occ_task_id_percent::1024            1                       # Percentage of cache occupancy per task id
system.cpu.icache.tags.tag_accesses            557531                       # Number of tag accesses
system.cpu.icache.tags.data_accesses           557531                       # Number of data accesses
system.cpu.dtb.walker.pwrStateResidencyTicks::UNDEFINED   1169026000                       # Cumulative time (in ticks) in various power states
system.cpu.interrupts.clk_domain.clock           6400                       # Clock period in ticks
system.cpu.itb.walker.pwrStateResidencyTicks::UNDEFINED   1169026000                       # Cumulative time (in ticks) in various power states
system.cpu.dcache.pwrStateResidencyTicks::UNDEFINED   1169026000                       # Cumulative time (in ticks) in various power states
system.cpu.dcache.demand_hits::.cpu.data       770760                       # number of demand (read+write) hits
system.cpu.dcache.demand_hits::total           770760                       # number of demand (read+write) hits
system.cpu.dcache.overall_hits::.cpu.data       770760                       # number of overall hits
system.cpu.dcache.overall_hits::total          770760                       # number of overall hits
system.cpu.dcache.demand_misses::.cpu.data        34896                       # number of demand (read+write) misses
system.cpu.dcache.demand_misses::total          34896                       # number of demand (read+write) misses
system.cpu.dcache.overall_misses::.cpu.data        34896                       # number of overall misses
system.cpu.dcache.overall_misses::total         34896                       # number of overall misses
system.cpu.dcache.demand_miss_latency::.cpu.data   1683481200                       # number of demand (read+write) miss cycles
system.cpu.dcache.demand_miss_latency::total   1683481200                       # number of demand (read+write) miss cycles
system.cpu.dcache.overall_miss_latency::.cpu.data   1683481200                       # number of overall miss cycles
system.cpu.dcache.overall_miss_latency::total   1683481200                       # number of overall miss cycles
system.cpu.dcache.demand_accesses::.cpu.data       805656                       # number of demand (read+write) accesses
system.cpu.dcache.demand_accesses::total       805656                       # number of demand (read+write) accesses
system.cpu.dcache.overall_accesses::.cpu.data       805656                       # number of overall (read+write) accesses
system.cpu.dcache.overall_accesses::total       805656                       # number of overall (read+write) accesses
system.cpu.dcache.demand_miss_rate::.cpu.data     0.043314                       # miss rate for demand accesses
system.cpu.dcache.demand_miss_rate::total     0.043314                       # miss rate for demand accesses
system.cpu.dcache.overall_miss_rate::.cpu.data     0.043314                       # miss rate for overall accesses
system.cpu.dcache.overall_miss_rate::total     0.043314                       # miss rate for overall accesses
system.cpu.dcache.demand_avg_miss_latency::.cpu.data 48242.812930                       # average overall miss latency
system.cpu.dcache.demand_avg_miss_latency::total 48242.812930                       # average overall miss latency
system.cpu.dcache.overall_avg_miss_latency::.cpu.data 48242.812930                       # average overall miss latency
system.cpu.dcache.overall_avg_miss_latency::total 48242.812930                       # average overall miss latency
system.cpu.dcache.blocked_cycles::no_mshrs        27688                       # number of cycles access was blocked
system.cpu.dcache.blocked_cycles::no_targets          183                       # number of cycles access was blocked
system.cpu.dcache.blocked::no_mshrs               719                       # number of cycles access was blocked
system.cpu.dcache.blocked::no_targets               2                       # number of cycles access was blocked
system.cpu.dcache.avg_blocked_cycles::no_mshrs    38.509040                       # average number of cycles each access was blocked
system.cpu.dcache.avg_blocked_cycles::no_targets    91.500000                       # average number of cycles each access was blocked
system.cpu.dcache.unused_prefetches              1798                       # number of HardPF blocks evicted w/o reference
system.cpu.dcache.writebacks::.writebacks         2800                       # number of writebacks
system.cpu.dcache.writebacks::total              2800                       # number of writebacks
system.cpu.dcache.demand_mshr_hits::.cpu.data        22303                       # number of demand (read+write) MSHR hits
system.cpu.dcache.demand_mshr_hits::total        22303                       # number of demand (read+write) MSHR hits
system.cpu.dcache.overall_mshr_hits::.cpu.data        22303                       # number of overall MSHR hits
system.cpu.dcache.overall_mshr_hits::total        22303                       # number of overall MSHR hits
system.cpu.dcache.demand_mshr_misses::.cpu.data        12593                       # number of demand (read+write) MSHR misses
system.cpu.dcache.demand_mshr_misses::total        12593                       # number of demand (read+write) MSHR misses
system.cpu.dcache.overall_mshr_misses::.cpu.data        12593                       # number of overall MSHR misses
system.cpu.dcache.overall_mshr_misses::.cpu.dcache.prefetcher         4408                       # number of overall MSHR misses
system.cpu.dcache.overall_mshr_misses::total        17001                       # number of overall MSHR misses
system.cpu.dcache.demand_mshr_miss_latency::.cpu.data    575187200                       # number of demand (read+write) MSHR miss cycles
system.cpu.dcache.demand_mshr_miss_latency::total    575187200                       # number of demand (read+write) MSHR miss cycles
system.cpu.dcache.overall_mshr_miss_latency::.cpu.data    575187200                       # number of overall MSHR miss cycles
system.cpu.dcache.overall_mshr_miss_latency::.cpu.dcache.prefetcher    254158966                       # number of overall MSHR miss cycles
system.cpu.dcache.overall_mshr_miss_latency::total    829346166                       # number of overall MSHR miss cycles
system.cpu.dcache.demand_mshr_miss_rate::.cpu.data     0.015631                       # mshr miss rate for demand accesses
system.cpu.dcache.demand_mshr_miss_rate::total     0.015631                       # mshr miss rate for demand accesses
system.cpu.dcache.overall_mshr_miss_rate::.cpu.data     0.015631                       # mshr miss rate for overall accesses
system.cpu.dcache.overall_mshr_miss_rate::.cpu.dcache.prefetcher          inf                       # mshr miss rate for overall accesses
system.cpu.dcache.overall_mshr_miss_rate::total     0.021102                       # mshr miss rate for overall accesses
system.cpu.dcache.demand_avg_mshr_miss_latency::.cpu.data 45675.152863                       # average overall mshr miss latency
system.cpu.dcache.demand_avg_mshr_miss_latency::total 45675.152863                       # average overall mshr miss latency
system.cpu.dcache.overall_avg_mshr_miss_latency::.cpu.data 45675.152863                       # average overall mshr miss latency
system.cpu.dcache.overall_avg_mshr_miss_latency::.cpu.dcache.prefetcher 57658.567604                       # average overall mshr miss latency
system.cpu.dcache.overall_avg_mshr_miss_latency::total 48782.199047                       # average overall mshr miss latency
system.cpu.dcache.replacements                  15976                       # number of replacements
system.cpu.dcache.ReadReq_hits::.cpu.data       570564                       # number of ReadReq hits
system.cpu.dcache.ReadReq_hits::total          570564                       # number of ReadReq hits
system.cpu.dcache.ReadReq_misses::.cpu.data        32817                       # number of ReadReq misses
system.cpu.dcache.ReadReq_misses::total         32817                       # number of ReadReq misses
system.cpu.dcache.ReadReq_miss_latency::.cpu.data   1580121200                       # number of ReadReq miss cycles
system.cpu.dcache.ReadReq_miss_latency::total   1580121200                       # number of ReadReq miss cycles
system.cpu.dcache.ReadReq_accesses::.cpu.data       603381                       # number of ReadReq accesses(hits+misses)
system.cpu.dcache.ReadReq_accesses::total       603381                       # number of ReadReq accesses(hits+misses)
system.cpu.dcache.ReadReq_miss_rate::.cpu.data     0.054389                       # miss rate for ReadReq accesses
system.cpu.dcache.ReadReq_miss_rate::total     0.054389                       # miss rate for ReadReq accesses
system.cpu.dcache.ReadReq_avg_miss_latency::.cpu.data 48149.471311                       # average ReadReq miss latency
system.cpu.dcache.ReadReq_avg_miss_latency::total 48149.471311                       # average ReadReq miss latency
system.cpu.dcache.ReadReq_mshr_hits::.cpu.data        22267                       # number of ReadReq MSHR hits
system.cpu.dcache.ReadReq_mshr_hits::total        22267                       # number of ReadReq MSHR hits
system.cpu.dcache.ReadReq_mshr_misses::.cpu.data        10550                       # number of ReadReq MSHR misses
system.cpu.dcache.ReadReq_mshr_misses::total        10550                       # number of ReadReq MSHR misses
system.cpu.dcache.ReadReq_mshr_miss_latency::.cpu.data    474630400                       # number of ReadReq MSHR miss cycles
system.cpu.dcache.ReadReq_mshr_miss_latency::total    474630400                       # number of ReadReq MSHR miss cycles
system.cpu.dcache.ReadReq_mshr_miss_rate::.cpu.data     0.017485                       # mshr miss rate for ReadReq accesses
system.cpu.dcache.ReadReq_mshr_miss_rate::total     0.017485                       # mshr miss rate for ReadReq accesses
system.cpu.dcache.ReadReq_avg_mshr_miss_latency::.cpu.data 44988.663507                       # average ReadReq mshr miss latency
system.cpu.dcache.ReadReq_avg_mshr_miss_latency::total 44988.663507                       # average ReadReq mshr miss latency
system.cpu.dcache.WriteReq_hits::.cpu.data       200196                       # number of WriteReq hits
system.cpu.dcache.WriteReq_hits::total         200196                       # number of WriteReq hits
system.cpu.dcache.WriteReq_misses::.cpu.data         2079                       # number of WriteReq misses
system.cpu.dcache.WriteReq_misses::total         2079                       # number of WriteReq misses
system.cpu.dcache.WriteReq_miss_latency::.cpu.data    103360000                       # number of WriteReq miss cycles
system.cpu.dcache.WriteReq_miss_latency::total    103360000                       # number of WriteReq miss cycles
system.cpu.dcache.WriteReq_accesses::.cpu.data       202275                       # number of WriteReq accesses(hits+misses)
system.cpu.dcache.WriteReq_accesses::total       202275                       # number of WriteReq accesses(hits+misses)
system.cpu.dcache.WriteReq_miss_rate::.cpu.data     0.010278                       # miss rate for WriteReq accesses
system.cpu.dcache.WriteReq_miss_rate::total     0.010278                       # miss rate for WriteReq accesses
system.cpu.dcache.WriteReq_avg_miss_latency::.cpu.data 49716.209716                       # average WriteReq miss latency
system.cpu.dcache.WriteReq_avg_miss_latency::total 49716.209716                       # average WriteReq miss latency
system.cpu.dcache.WriteReq_mshr_hits::.cpu.data           36                       # number of WriteReq MSHR hits
system.cpu.dcache.WriteReq_mshr_hits::total           36                       # number of WriteReq MSHR hits
[...]
system.l2cache.overall_mshr_miss_latency::total     14978380                       # number of overall MSHR miss cycles
system.l2cache.demand_mshr_miss_rate::.cpu.inst     0.357466                       # mshr miss rate for demand accesses
system.l2cache.demand_mshr_miss_rate::.cpu.data     0.537415                       # mshr miss rate for demand accesses
system.l2cache.demand_mshr_miss_rate::.cpu.dcache.prefetcher     0.625000                       # mshr miss rate for demand accesses
system.l2cache.demand_mshr_miss_rate::total     0.411093                       # mshr miss rate for demand accesses
system.l2cache.overall_mshr_miss_rate::.cpu.inst     0.357466                       # mshr miss rate for overall accesses
system.l2cache.overall_mshr_miss_rate::.cpu.data     0.537415                       # mshr miss rate for overall accesses
system.l2cache.overall_mshr_miss_rate::.cpu.dcache.prefetcher     0.625000                       # mshr miss rate for overall accesses
system.l2cache.overall_mshr_miss_rate::.l2cache.prefetcher          inf                       # mshr miss rate for overall accesses
system.l2cache.overall_mshr_miss_rate::total     0.414356                       # mshr miss rate for overall accesses
system.l2cache.demand_avg_mshr_miss_latency::.cpu.inst 59258.227848                       # average overall mshr miss latency
system.l2cache.demand_avg_mshr_miss_latency::.cpu.data 58572.151899                       # average overall mshr miss latency
system.l2cache.demand_avg_mshr_miss_latency::.cpu.dcache.prefetcher 58265.533333                       # average overall mshr miss latency
system.l2cache.demand_avg_mshr_miss_latency::total 58984.059524                       # average overall mshr miss latency
system.l2cache.overall_avg_mshr_miss_latency::.cpu.inst 59258.227848                       # average overall mshr miss latency
system.l2cache.overall_avg_mshr_miss_latency::.cpu.data 58572.151899                       # average overall mshr miss latency
system.l2cache.overall_avg_mshr_miss_latency::.cpu.dcache.prefetcher 58265.533333                       # average overall mshr miss latency
system.l2cache.overall_avg_mshr_miss_latency::.l2cache.prefetcher 57198.500000                       # average overall mshr miss latency
system.l2cache.overall_avg_mshr_miss_latency::total        58970                       # average overall mshr miss latency
system.l2cache.replacements                       258                       # number of replacements
system.l2cache.WritebackDirty_hits::.writebacks           41                       # number of WritebackDirty hits
system.l2cache.WritebackDirty_hits::total           41                       # number of WritebackDirty hits
system.l2cache.WritebackDirty_accesses::.writebacks           41                       # number of WritebackDirty accesses(hits+misses)
system.l2cache.WritebackDirty_accesses::total           41                       # number of WritebackDirty accesses(hits+misses)
system.l2cache.CleanEvict_mshr_misses::.writebacks            8                       # number of CleanEvict MSHR misses
system.l2cache.CleanEvict_mshr_misses::total            8                       # number of CleanEvict MSHR misses
system.l2cache.CleanEvict_mshr_miss_rate::.writebacks          inf                       # mshr miss rate for CleanEvict accesses
system.l2cache.CleanEvict_mshr_miss_rate::total          inf                       # mshr miss rate for CleanEvict accesses
system.l2cache.HardPFReq_mshr_misses::.l2cache.prefetcher            2                       # number of HardPFReq MSHR misses
system.l2cache.HardPFReq_mshr_misses::total            2                       # number of HardPFReq MSHR misses
system.l2cache.HardPFReq_mshr_miss_latency::.l2cache.prefetcher       114397                       # number of HardPFReq MSHR miss cycles
system.l2cache.HardPFReq_mshr_miss_latency::total       114397                       # number of HardPFReq MSHR miss cycles
system.l2cache.HardPFReq_mshr_miss_rate::.l2cache.prefetcher          inf                       # mshr miss rate for HardPFReq accesses
system.l2cache.HardPFReq_mshr_miss_rate::total          inf                       # mshr miss rate for HardPFReq accesses
system.l2cache.HardPFReq_avg_mshr_miss_latency::.l2cache.prefetcher 57198.500000                       # average HardPFReq mshr miss latency
system.l2cache.HardPFReq_avg_mshr_miss_latency::total 57198.500000                       # average HardPFReq mshr miss latency
system.l2cache.ReadExReq_hits::.cpu.data            3                       # number of ReadExReq hits
system.l2cache.ReadExReq_hits::total                3                       # number of ReadExReq hits
system.l2cache.ReadExReq_misses::.cpu.data            4                       # number of ReadExReq misses
system.l2cache.ReadExReq_misses::total              4                       # number of ReadExReq misses
system.l2cache.ReadExReq_miss_latency::.cpu.data       324400                       # number of ReadExReq miss cycles
system.l2cache.ReadExReq_miss_latency::total       324400                       # number of ReadExReq miss cycles
system.l2cache.ReadExReq_accesses::.cpu.data            7                       # number of ReadExReq accesses(hits+misses)
system.l2cache.ReadExReq_accesses::total            7                       # number of ReadExReq accesses(hits+misses)
system.l2cache.ReadExReq_miss_rate::.cpu.data     0.571429                       # miss rate for ReadExReq accesses
system.l2cache.ReadExReq_miss_rate::total     0.571429                       # miss rate for ReadExReq accesses
system.l2cache.ReadExReq_avg_miss_latency::.cpu.data        81100                       # average ReadExReq miss latency
system.l2cache.ReadExReq_avg_miss_latency::total        81100                       # average ReadExReq miss latency
system.l2cache.ReadExReq_mshr_misses::.cpu.data            4                       # number of ReadExReq MSHR misses
system.l2cache.ReadExReq_mshr_misses::total            4                       # number of ReadExReq MSHR misses
system.l2cache.ReadExReq_mshr_miss_latency::.cpu.data       292400                       # number of ReadExReq MSHR miss cycles
system.l2cache.ReadExReq_mshr_miss_latency::total       292400                       # number of ReadExReq MSHR miss cycles
system.l2cache.ReadExReq_mshr_miss_rate::.cpu.data     0.571429                       # mshr miss rate for ReadExReq accesses
system.l2cache.ReadExReq_mshr_miss_rate::total     0.571429                       # mshr miss rate for ReadExReq accesses
system.l2cache.ReadExReq_avg_mshr_miss_latency::.cpu.data        73100                       # average ReadExReq mshr miss latency
system.l2cache.ReadExReq_avg_mshr_miss_latency::total        73100                       # average ReadExReq mshr miss latency
system.l2cache.ReadSharedReq_hits::.cpu.inst          284                       # number of ReadSharedReq hits
system.l2cache.ReadSharedReq_hits::.cpu.data           65                       # number of ReadSharedReq hits
system.l2cache.ReadSharedReq_hits::.cpu.dcache.prefetcher            9                       # number of ReadSharedReq hits
system.l2cache.ReadSharedReq_hits::total          358                       # number of ReadSharedReq hits
system.l2cache.ReadSharedReq_misses::.cpu.inst          158                       # number of ReadSharedReq misses
system.l2cache.ReadSharedReq_misses::.cpu.data           75                       # number of ReadSharedReq misses
system.l2cache.ReadSharedReq_misses::.cpu.dcache.prefetcher           15                       # number of ReadSharedReq misses
system.l2cache.ReadSharedReq_misses::total          248                       # number of ReadSharedReq misses
system.l2cache.ReadSharedReq_miss_latency::.cpu.inst     10618800                       # number of ReadSharedReq miss cycles
system.l2cache.ReadSharedReq_miss_latency::.cpu.data      4934800                       # number of ReadSharedReq miss cycles
system.l2cache.ReadSharedReq_miss_latency::.cpu.dcache.prefetcher       993983                       # number of ReadSharedReq miss cycles
system.l2cache.ReadSharedReq_miss_latency::total     16547583                       # number of ReadSharedReq miss cycles
system.l2cache.ReadSharedReq_accesses::.cpu.inst          442                       # number of ReadSharedReq accesses(hits+misses)
system.l2cache.ReadSharedReq_accesses::.cpu.data          140                       # number of ReadSharedReq accesses(hits+misses)
system.l2cache.ReadSharedReq_accesses::.cpu.dcache.prefetcher           24                       # number of ReadSharedReq accesses(hits+misses)
system.l2cache.ReadSharedReq_accesses::total          606                       # number of ReadSharedReq accesses(hits+misses)
system.l2cache.ReadSharedReq_miss_rate::.cpu.inst     0.357466                       # miss rate for ReadSharedReq accesses
system.l2cache.ReadSharedReq_miss_rate::.cpu.data     0.535714                       # miss rate for ReadSharedReq accesses
system.l2cache.ReadSharedReq_miss_rate::.cpu.dcache.prefetcher     0.625000                       # miss rate for ReadSharedReq accesses
system.l2cache.ReadSharedReq_miss_rate::total     0.409241                       # miss rate for ReadSharedReq accesses
system.l2cache.ReadSharedReq_avg_miss_latency::.cpu.inst 67207.594937                       # average ReadSharedReq miss latency
system.l2cache.ReadSharedReq_avg_miss_latency::.cpu.data 65797.333333                       # average ReadSharedReq miss latency
system.l2cache.ReadSharedReq_avg_miss_latency::.cpu.dcache.prefetcher 66265.533333                       # average ReadSharedReq miss latency
system.l2cache.ReadSharedReq_avg_miss_latency::total 66724.125000                       # average ReadSharedReq miss latency
system.l2cache.ReadSharedReq_mshr_misses::.cpu.inst          158                       # number of ReadSharedReq MSHR misses
system.l2cache.ReadSharedReq_mshr_misses::.cpu.data           75                       # number of ReadSharedReq MSHR misses
system.l2cache.ReadSharedReq_mshr_misses::.cpu.dcache.prefetcher           15                       # number of ReadSharedReq MSHR misses
system.l2cache.ReadSharedReq_mshr_misses::total          248                       # number of ReadSharedReq MSHR misses
system.l2cache.ReadSharedReq_mshr_miss_latency::.cpu.inst      9362800                       # number of ReadSharedReq MSHR miss cycles
system.l2cache.ReadSharedReq_mshr_miss_latency::.cpu.data      4334800                       # number of ReadSharedReq MSHR miss cycles
system.l2cache.ReadSharedReq_mshr_miss_latency::.cpu.dcache.prefetcher       873983                       # number of ReadSharedReq MSHR miss cycles
system.l2cache.ReadSharedReq_mshr_miss_latency::total     14571583                       # number of ReadSharedReq MSHR miss cycles
system.l2cache.ReadSharedReq_mshr_miss_rate::.cpu.inst     0.357466                       # mshr miss rate for ReadSharedReq accesses
system.l2cache.ReadSharedReq_mshr_miss_rate::.cpu.data     0.535714                       # mshr miss rate for ReadSharedReq accesses
system.l2cache.ReadSharedReq_mshr_miss_rate::.cpu.dcache.prefetcher     0.625000                       # mshr miss rate for ReadSharedReq accesses
system.l2cache.ReadSharedReq_mshr_miss_rate::total     0.409241                       # mshr miss rate for ReadSharedReq accesses
system.l2cache.ReadSharedReq_avg_mshr_miss_latency::.cpu.inst 59258.227848                       # average ReadSharedReq mshr miss latency
system.l2cache.ReadSharedReq_avg_mshr_miss_latency::.cpu.data 57797.333333                       # average ReadSharedReq mshr miss latency
system.l2cache.ReadSharedReq_avg_mshr_miss_latency::.cpu.dcache.prefetcher 58265.533333                       # average ReadSharedReq mshr miss latency
system.l2cache.ReadSharedReq_avg_mshr_miss_latency::total 58756.383065                       # average ReadSharedReq mshr miss latency
system.l2cache.prefetcher.pwrStateResidencyTicks::UNDEFINED     86804000                       # Cumulative time (in ticks) in various power states
system.l2cache.tags.pwrStateResidencyTicks::UNDEFINED     86804000                       # Cumulative time (in ticks) in various power states
system.l2cache.tags.tagsinuse                    4096                       # Cycle average of tags in use
system.l2cache.tags.total_refs                  13851                       # Total number of references to valid blocks.
system.l2cache.tags.sampled_refs                 4354                       # Sample count of references to valid blocks.
system.l2cache.tags.avg_refs                 3.181213                       # Average number of references to valid blocks.
system.l2cache.tags.warmup_cycle                    0                       # Cycle when the warmup percentage was hit.
system.l2cache.tags.occ_blocks::.writebacks    40.974720                       # Average occupied blocks per requestor
system.l2cache.tags.occ_blocks::.cpu.inst  1138.944672                       # Average occupied blocks per requestor
system.l2cache.tags.occ_blocks::.cpu.data  1823.463559                       # Average occupied blocks per requestor
system.l2cache.tags.occ_blocks::.cpu.dcache.prefetcher   988.773899                       # Average occupied blocks per requestor
system.l2cache.tags.occ_blocks::.l2cache.prefetcher   103.843150                       # Average occupied blocks per requestor
system.l2cache.tags.occ_percent::.writebacks     0.010004                       # Average percentage of cache occupancy
system.l2cache.tags.occ_percent::.cpu.inst     0.278063                       # Average percentage of cache occupancy
system.l2cache.tags.occ_percent::.cpu.data     0.445182                       # Average percentage of cache occupancy
system.l2cache.tags.occ_percent::.cpu.dcache.prefetcher     0.241400                       # Average percentage of cache occupancy
system.l2cache.tags.occ_percent::.l2cache.prefetcher     0.025352                       # Average percentage of cache occupancy
system.l2cache.tags.occ_percent::total              1                       # Average percentage of cache occupancy
system.l2cache.tags.occ_task_id_blocks::1022         1036                       # Occupied blocks per task id
system.l2cache.tags.occ_task_id_blocks::1024         3060                       # Occupied blocks per task id
system.l2cache.tags.age_task_id_blocks_1022::0            9                       # Occupied blocks per task id
system.l2cache.tags.age_task_id_blocks_1022::1           23                       # Occupied blocks per task id
system.l2cache.tags.age_task_id_blocks_1022::2          984                       # Occupied blocks per task id
system.l2cache.tags.age_task_id_blocks_1022::3           20                       # Occupied blocks per task id
system.l2cache.tags.age_task_id_blocks_1024::0          167                       # Occupied blocks per task id
system.l2cache.tags.age_task_id_blocks_1024::1          133                       # Occupied blocks per task id
system.l2cache.tags.age_task_id_blocks_1024::2         2593                       # Occupied blocks per task id
system.l2cache.tags.age_task_id_blocks_1024::3          167                       # Occupied blocks per task id
system.l2cache.tags.occ_task_id_percent::1022     0.252930                       # Percentage of cache occupancy per task id
system.l2cache.tags.occ_task_id_percent::1024     0.747070                       # Percentage of cache occupancy per task id
system.l2cache.tags.tag_accesses                10066                       # Number of tag accesses
system.l2cache.tags.data_accesses               10066                       # Number of data accesses
system.mem_ctrl.pwrStateResidencyTicks::UNDEFINED     86804000                       # Cumulative time (in ticks) in various power states
system.mem_ctrl.bytes_read::.cpu.inst           10048                       # Number of bytes read from this memory
system.mem_ctrl.bytes_read::.cpu.data            5056                       # Number of bytes read from this memory
system.mem_ctrl.bytes_read::.cpu.dcache.prefetcher          960                       # Number of bytes read from this memory
system.mem_ctrl.bytes_read::.l2cache.prefetcher          128                       # Number of bytes read from this memory
system.mem_ctrl.bytes_read::total               16192                       # Number of bytes read from this memory
system.mem_ctrl.bytes_inst_read::.cpu.inst        10048                       # Number of instructions bytes read from this memory
system.mem_ctrl.bytes_inst_read::total          10048                       # Number of instructions bytes read from this memory
system.mem_ctrl.bytes_written::.writebacks         1280                       # Number of bytes written to this memory
system.mem_ctrl.bytes_written::total             1280                       # Number of bytes written to this memory
system.mem_ctrl.num_reads::.cpu.inst              157                       # Number of read requests responded to by this memory
system.mem_ctrl.num_reads::.cpu.data               79                       # Number of read requests responded to by this memory
system.mem_ctrl.num_reads::.cpu.dcache.prefetcher           15                       # Number of read requests responded to by this memory
system.mem_ctrl.num_reads::.l2cache.prefetcher            2                       # Number of read requests responded to by this memory
system.mem_ctrl.num_reads::total                  253                       # Number of read requests responded to by this memory
system.mem_ctrl.num_writes::.writebacks            20                       # Number of write requests responded to by this memory
system.mem_ctrl.num_writes::total                  20                       # Number of write requests responded to by this memory
system.mem_ctrl.bw_read::.cpu.inst          115755034                       # Total read bandwidth from this memory (bytes/s)
system.mem_ctrl.bw_read::.cpu.data           58246164                       # Total read bandwidth from this memory (bytes/s)
system.mem_ctrl.bw_read::.cpu.dcache.prefetcher     11059398                       # Total read bandwidth from this memory (bytes/s)
system.mem_ctrl.bw_read::.l2cache.prefetcher      1474586                       # Total read bandwidth from this memory (bytes/s)
system.mem_ctrl.bw_read::total              186535183                       # Total read bandwidth from this memory (bytes/s)
system.mem_ctrl.bw_inst_read::.cpu.inst     115755034                       # Instruction read bandwidth from this memory (bytes/s)
system.mem_ctrl.bw_inst_read::total         115755034                       # Instruction read bandwidth from this memory (bytes/s)
system.mem_ctrl.bw_write::.writebacks        14745864                       # Write bandwidth from this memory (bytes/s)
system.mem_ctrl.bw_write::total              14745864                       # Write bandwidth from this memory (bytes/s)
system.mem_ctrl.bw_total::.writebacks        14745864                       # Total bandwidth to/from this memory (bytes/s)
system.mem_ctrl.bw_total::.cpu.inst         115755034                       # Total bandwidth to/from this memory (bytes/s)
system.mem_ctrl.bw_total::.cpu.data          58246164                       # Total bandwidth to/from this memory (bytes/s)
system.mem_ctrl.bw_total::.cpu.dcache.prefetcher     11059398                       # Total bandwidth to/from this memory (bytes/s)
system.mem_ctrl.bw_total::.l2cache.prefetcher      1474586                       # Total bandwidth to/from this memory (bytes/s)
system.mem_ctrl.bw_total::total             201281047                       # Total bandwidth to/from this memory (bytes/s)

---------- End Simulation Statistics   ----------
