
---------- Begin Simulation Statistics ----------
final_tick                                 1099602800                       # Number of ticks from beginning of simulation (restored from checkpoints and never reset)
host_inst_rate                                 182651                       # Simulator instruction rate (inst/s)
host_mem_usage                                4407880                       # Number of bytes of host memory used
host_op_rate                                   318346                       # Simulator op (including micro ops) rate (op/s)
host_seconds                                    11.38                       # Real time elapsed on the host
host_tick_rate                               96630696                       # Simulator tick rate (ticks/s)
sim_freq                                 1000000000000                       # Frequency of simulated ticks
sim_insts                                     2078454                       # Number of instructions simulated
sim_ops                                       3622588                       # Number of ops (including micro ops) simulated
sim_seconds                                  0.001100                       # Number of seconds simulated
sim_ticks                                  1099602800                       # Number of ticks simulated
system.cpu.branchPred.BTBCorrect                    0                       # Number of correct BTB predictions (this stat may not work properly.
system.cpu.branchPred.BTBHitPct              0.000000                       # BTB Hit Percentage
system.cpu.branchPred.BTBHits                       0                       # Number of BTB hits
system.cpu.branchPred.BTBLookups               439112                       # Number of BTB lookups
system.cpu.branchPred.RASInCorrect                 10                       # Number of incorrect RAS predictions.
system.cpu.branchPred.condIncorrect             24431                       # Number of conditional branches incorrect
system.cpu.branchPred.condPredicted            464479                       # Number of conditional branches predicted
system.cpu.branchPred.indirectHits             239530                       # Number of indirect target hits.
system.cpu.branchPred.indirectLookups          439112                       # Number of indirect predictor lookups.
system.cpu.branchPred.indirectMisses           199582                       # Number of indirect misses.
system.cpu.branchPred.lookups                  490919                       # Number of BP lookups
system.cpu.branchPred.usedRAS                   11500                       # Number of times the RAS was used to get a target.
system.cpu.branchPredindirectMispredicted        12334                       # Number of mispredicted indirect branches.
system.cpu.cc_regfile_reads                   2383066                       # number of cc regfile reads
system.cpu.cc_regfile_writes                  1939537                       # number of cc regfile writes
system.cpu.commit.amos                              0                       # Number of atomic instructions committed
system.cpu.commit.branchMispredicts             24542                       # The number of times a branch was mispredicted
system.cpu.commit.branches                     347592                       # Number of branches committed
system.cpu.commit.bw_lim_events                601625                       # number cycles where commit BW limit reached
system.cpu.commit.commitNonSpecStalls             760                       # The number of times commit has been forced to stall to communicate backwards
system.cpu.commit.commitSquashedInsts          884833                       # The number of squashed insts skipped by commit
system.cpu.commit.committedInsts              2078454                       # Number of instructions committed
system.cpu.commit.committedOps                3622588                       # Number of ops (including micro ops) committed
system.cpu.commit.committed_per_cycle::samples      2345646                       # Number of insts commited each cycle
system.cpu.commit.committed_per_cycle::mean     1.544388                       # Number of insts commited each cycle
system.cpu.commit.committed_per_cycle::stdev     1.724365                       # Number of insts commited each cycle
system.cpu.commit.committed_per_cycle::underflows            0      0.00%      0.00% # Number of insts commited each cycle
system.cpu.commit.committed_per_cycle::0      1161183     49.50%     49.50% # Number of insts commited each cycle
system.cpu.commit.committed_per_cycle::1       179947      7.67%     57.18% # Number of insts commited each cycle
system.cpu.commit.committed_per_cycle::2       172532      7.36%     64.53% # Number of insts commited each cycle
system.cpu.commit.committed_per_cycle::3       230359      9.82%     74.35% # Number of insts commited each cycle
system.cpu.commit.committed_per_cycle::4       601625     25.65%    100.00% # Number of insts commited each cycle
system.cpu.commit.committed_per_cycle::overflows            0      0.00%    100.00% # Number of insts commited each cycle
system.cpu.commit.committed_per_cycle::min_value            0                       # Number of insts commited each cycle
system.cpu.commit.committed_per_cycle::max_value            4                       # Number of insts commited each cycle
system.cpu.commit.committed_per_cycle::total      2345646                       # Number of insts commited each cycle
system.cpu.commit.fp_insts                      77641                       # Number of committed floating point instructions.
system.cpu.commit.function_calls                 9634                       # Number of function calls committed.
system.cpu.commit.int_insts                   3564541                       # Number of committed integer instructions.
system.cpu.commit.loads                        496019                       # Number of loads committed
system.cpu.commit.membars                           1                       # Number of memory barriers committed
system.cpu.commit.op_class_0::No_OpClass        20823      0.57%      0.57% # Class of committed instruction
system.cpu.commit.op_class_0::IntAlu          2846478     78.58%     79.15% # Class of committed instruction
system.cpu.commit.op_class_0::IntMult            1426      0.04%     79.19% # Class of committed instruction
system.cpu.commit.op_class_0::IntDiv            38160      1.05%     80.24% # Class of committed instruction
system.cpu.commit.op_class_0::FloatAdd           3028      0.08%     80.33% # Class of committed instruction
system.cpu.commit.op_class_0::FloatCmp              0      0.00%     80.33% # Class of committed instruction
system.cpu.commit.op_class_0::FloatCvt           1248      0.03%     80.36% # Class of committed instruction
system.cpu.commit.op_class_0::FloatMult             0      0.00%     80.36% # Class of committed instruction
system.cpu.commit.op_class_0::FloatMultAcc            0      0.00%     80.36% # Class of committed instruction
system.cpu.commit.op_class_0::FloatDiv              0      0.00%     80.36% # Class of committed instruction
system.cpu.commit.op_class_0::FloatMisc             0      0.00%     80.36% # Class of committed instruction
system.cpu.commit.op_class_0::FloatSqrt             0      0.00%     80.36% # Class of committed instruction
system.cpu.commit.op_class_0::SimdAdd            6274      0.17%     80.53% # Class of committed instruction
system.cpu.commit.op_class_0::SimdAddAcc            0      0.00%     80.53% # Class of committed instruction
system.cpu.commit.op_class_0::SimdAlu           11857      0.33%     80.86% # Class of committed instruction
system.cpu.commit.op_class_0::SimdCmp               0      0.00%     80.86% # Class of committed instruction
system.cpu.commit.op_class_0::SimdCvt           12774      0.35%     81.21% # Class of committed instruction
system.cpu.commit.op_class_0::SimdMisc           7815      0.22%     81.43% # Class of committed instruction
system.cpu.commit.op_class_0::SimdMult              0      0.00%     81.43% # Class of committed instruction
system.cpu.commit.op_class_0::SimdMultAcc            0      0.00%     81.43% # Class of committed instruction
system.cpu.commit.op_class_0::SimdShift          1242      0.03%     81.46% # Class of committed instruction
system.cpu.commit.op_class_0::SimdShiftAcc            0      0.00%     81.46% # Class of committed instruction
system.cpu.commit.op_class_0::SimdDiv               0      0.00%     81.46% # Class of committed instruction
system.cpu.commit.op_class_0::SimdSqrt              0      0.00%     81.46% # Class of committed instruction
system.cpu.commit.op_class_0::SimdFloatAdd            0      0.00%     81.46% # Class of committed instruction
system.cpu.commit.op_class_0::SimdFloatAlu            0      0.00%     81.46% # Class of committed instruction
system.cpu.commit.op_class_0::SimdFloatCmp            0      0.00%     81.46% # Class of committed instruction
system.cpu.commit.op_class_0::SimdFloatCvt            0      0.00%     81.46% # Class of committed instruction
system.cpu.commit.op_class_0::SimdFloatDiv            0      0.00%     81.46% # Class of committed instruction
system.cpu.commit.op_class_0::SimdFloatMisc            0      0.00%     81.46% # Class of committed instruction
system.cpu.commit.op_class_0::SimdFloatMult            0      0.00%     81.46% # Class of committed instruction
system.cpu.commit.op_class_0::SimdFloatMultAcc            0      0.00%     81.46% # Class of committed instruction
system.cpu.commit.op_class_0::SimdFloatSqrt            0      0.00%     81.46% # Class of committed instruction
system.cpu.commit.op_class_0::SimdReduceAdd            0      0.00%     81.46% # Class of committed instruction
system.cpu.commit.op_class_0::SimdReduceAlu            0      0.00%     81.46% # Class of committed instruction
system.cpu.commit.op_class_0::SimdReduceCmp            0      0.00%     81.46% # Class of committed instruction
system.cpu.commit.op_class_0::SimdFloatReduceAdd            0      0.00%     81.46% # Class of committed instruction
system.cpu.commit.op_class_0::SimdFloatReduceCmp            0      0.00%     81.46% # Class of committed instruction
system.cpu.commit.op_class_0::SimdAes               0      0.00%     81.46% # Class of committed instruction
system.cpu.commit.op_class_0::SimdAesMix            0      0.00%     81.46% # Class of committed instruction
system.cpu.commit.op_class_0::SimdSha1Hash            0      0.00%     81.46% # Class of committed instruction
system.cpu.commit.op_class_0::SimdSha1Hash2            0      0.00%     81.46% # Class of committed instruction
system.cpu.commit.op_class_0::SimdSha256Hash            0      0.00%     81.46% # Class of committed instruction
system.cpu.commit.op_class_0::SimdSha256Hash2            0      0.00%     81.46% # Class of committed instruction
system.cpu.commit.op_class_0::SimdShaSigma2            0      0.00%     81.46% # Class of committed instruction
system.cpu.commit.op_class_0::SimdShaSigma3            0      0.00%     81.46% # Class of committed instruction
system.cpu.commit.op_class_0::SimdPredAlu            0      0.00%     81.46% # Class of committed instruction
system.cpu.commit.op_class_0::MemRead          476241     13.15%     94.61% # Class of committed instruction
system.cpu.commit.op_class_0::MemWrite         163097      4.50%     99.11% # Class of committed instruction
system.cpu.commit.op_class_0::FloatMemRead        19778      0.55%     99.66% # Class of committed instruction
system.cpu.commit.op_class_0::FloatMemWrite        12347      0.34%    100.00% # Class of committed instruction
system.cpu.commit.op_class_0::IprAccess             0      0.00%    100.00% # Class of committed instruction
system.cpu.commit.op_class_0::InstPrefetch            0      0.00%    100.00% # Class of committed instruction
system.cpu.commit.op_class_0::total           3622588                       # Class of committed instruction
system.cpu.commit.refs                         671463                       # Number of memory references committed
system.cpu.commit.swp_count                         0                       # Number of s/w prefetches committed
system.cpu.commit.vec_insts                         0                       # Number of committed Vector instructions.
system.cpu.committedInsts                     2078454                       # Number of Instructions Simulated
system.cpu.committedOps                       3622588                       # Number of Ops (including micro ops) Simulated
system.cpu.cpi                               1.322622                       # CPI: Cycles Per Instruction
system.cpu.cpi_total                         1.322622                       # CPI: Total CPI of All Threads
system.cpu.dcache.prefetcher.num_hwpf_issued         8213                       # number of hwpf issued
system.cpu.dcache.prefetcher.pfBufferHit        34924                       # number of redundant prefetches already in prefetch queue
system.cpu.dcache.prefetcher.pfIdentified        50703                       # number of prefetch candidates identified
system.cpu.dcache.prefetcher.pfInCache              0                       # number of redundant prefetches already in cache/mshr dropped
system.cpu.dcache.prefetcher.pfRemovedFull            0                       # number of prefetches dropped due to prefetch queue size
system.cpu.dcache.prefetcher.pfSpanPage          4521                       # number of prefetches that crossed the page
system.cpu.decode.BlockedCycles               1026281                       # Number of cycles decode is blocked
system.cpu.decode.DecodedInsts                4724525                       # Number of instructions handled by decode
system.cpu.decode.IdleCycles                   299232                       # Number of cycles decode is idle
system.cpu.decode.RunCycles                   1147585                       # Number of cycles decode is running
system.cpu.decode.SquashCycles                  24601                       # Number of cycles decode is squashing
system.cpu.decode.UnblockCycles                 89214                       # Number of cycles decode is unblocking
system.cpu.dtb.rdAccesses                      579030                       # TLB accesses on read requests
system.cpu.dtb.rdMisses                          2023                       # TLB misses on read requests
system.cpu.dtb.wrAccesses                      194905                       # TLB accesses on write requests
system.cpu.dtb.wrMisses                           164                       # TLB misses on write requests
system.cpu.fetch.Branches                      490919                       # Number of branches that fetch encountered
system.cpu.fetch.CacheLines                    243451                       # Number of cache lines fetched
system.cpu.fetch.Cycles                       2226092                       # Number of cycles fetch has run and was not squashing or blocked
system.cpu.fetch.IcacheSquashes                  4690                       # Number of outstanding Icache misses that were squashed
system.cpu.fetch.IcacheWaitRetryStallCycles           17                       # Number of stall cycles due to full MSHR
system.cpu.fetch.Insts                        2847234                       # Number of instructions fetch has processed
system.cpu.fetch.MiscStallCycles                  120                       # Number of cycles fetch has spent waiting on interrupts, or bad addresses, or out of MSHRs
system.cpu.fetch.PendingQuiesceStallCycles            6                       # Number of stall cycles due to pending quiesce instructions
system.cpu.fetch.PendingTrapStallCycles           773                       # Number of stall cycles due to pending traps
system.cpu.fetch.SquashCycles                   49202                       # Number of cycles fetch has spent squashing
system.cpu.fetch.branchRate                  0.178580                       # Number of branch fetches per cycle
system.cpu.fetch.icacheStallCycles             335304                       # Number of cycles fetch is stalled on an Icache miss
system.cpu.fetch.predictedBranches             251030                       # Number of branches that fetch has predicted taken
system.cpu.fetch.rate                        1.035731                       # Number of inst fetches per cycle
system.cpu.fetch.rateDist::samples            2586913                       # Number of instructions fetched each cycle (Total)
system.cpu.fetch.rateDist::mean              1.933191                       # Number of instructions fetched each cycle (Total)
system.cpu.fetch.rateDist::stdev             1.930430                       # Number of instructions fetched each cycle (Total)
system.cpu.fetch.rateDist::underflows               0      0.00%      0.00% # Number of instructions fetched each cycle (Total)
system.cpu.fetch.rateDist::0                  1231245     47.60%     47.60% # Number of instructions fetched each cycle (Total)
system.cpu.fetch.rateDist::1                    74686      2.89%     50.48% # Number of instructions fetched each cycle (Total)
system.cpu.fetch.rateDist::2                    60543      2.34%     52.82% # Number of instructions fetched each cycle (Total)
system.cpu.fetch.rateDist::3                    76530      2.96%     55.78% # Number of instructions fetched each cycle (Total)
system.cpu.fetch.rateDist::4                  1143909     44.22%    100.00% # Number of instructions fetched each cycle (Total)
system.cpu.fetch.rateDist::overflows                0      0.00%    100.00% # Number of instructions fetched each cycle (Total)
system.cpu.fetch.rateDist::min_value                0                       # Number of instructions fetched each cycle (Total)
system.cpu.fetch.rateDist::max_value                4                       # Number of instructions fetched each cycle (Total)
system.cpu.fetch.rateDist::total              2586913                       # Number of instructions fetched each cycle (Total)
system.cpu.fp_regfile_reads                    127496                       # number of floating regfile reads
system.cpu.fp_regfile_writes                    70066                       # number of floating regfile writes
system.cpu.fuPool.fu_ticks_busy::IntALU(0)    218227200                       # Total ticks fu was busy
system.cpu.fuPool.fu_ticks_busy::IntALU(1)    218227200                       # Total ticks fu was busy
system.cpu.fuPool.fu_ticks_busy::IntALU(2)    218227200                       # Total ticks fu was busy
system.cpu.fuPool.fu_ticks_busy::IntALU(3)    218227200                       # Total ticks fu was busy
system.cpu.fuPool.fu_ticks_busy::IntALU(4)    218226800                       # Total ticks fu was busy
system.cpu.fuPool.fu_ticks_busy::IntALU(5)    218226800                       # Total ticks fu was busy
system.cpu.fuPool.fu_ticks_busy::IntMultDiv(0)      8750400                       # Total ticks fu was busy
system.cpu.fuPool.fu_ticks_busy::IntMultDiv(1)      8750000                       # Total ticks fu was busy
system.cpu.fuPool.fu_ticks_busy::FP_ALU(0)       589200                       # Total ticks fu was busy
system.cpu.fuPool.fu_ticks_busy::FP_ALU(1)       589200                       # Total ticks fu was busy
system.cpu.fuPool.fu_ticks_busy::FP_ALU(2)       589200                       # Total ticks fu was busy
system.cpu.fuPool.fu_ticks_busy::FP_ALU(3)       588800                       # Total ticks fu was busy
system.cpu.fuPool.fu_ticks_busy::FP_MultDiv(0)            0                       # Total ticks fu was busy
system.cpu.fuPool.fu_ticks_busy::FP_MultDiv(1)            0                       # Total ticks fu was busy
system.cpu.fuPool.fu_ticks_busy::SIMD_Unit(0)      4616400                       # Total ticks fu was busy
system.cpu.fuPool.fu_ticks_busy::SIMD_Unit(1)      4785600                       # Total ticks fu was busy
system.cpu.fuPool.fu_ticks_busy::SIMD_Unit(2)      4984800                       # Total ticks fu was busy
system.cpu.fuPool.fu_ticks_busy::SIMD_Unit(3)      4788800                       # Total ticks fu was busy
system.cpu.fuPool.fu_ticks_busy::PredALU(0)            0                       # Total ticks fu was busy
system.cpu.fuPool.fu_ticks_busy::RdWrPort(0)     78834000                       # Total ticks fu was busy
system.cpu.fuPool.fu_ticks_busy::RdWrPort(1)     78840000                       # Total ticks fu was busy
system.cpu.fuPool.fu_ticks_busy::RdWrPort(2)     78883200                       # Total ticks fu was busy
system.cpu.fuPool.fu_ticks_busy::RdWrPort(3)     78862400                       # Total ticks fu was busy
system.cpu.fuPool.fu_ticks_busy::IprPort(0)            0                       # Total ticks fu was busy
system.cpu.fuPool.fu_ticks_busy::total     1663814400                       # Total ticks fu was busy
system.cpu.icache.prefetcher.num_hwpf_issued            0                       # number of hwpf issued
system.cpu.icache.prefetcher.pfBufferHit            0                       # number of redundant prefetches already in prefetch queue
system.cpu.icache.prefetcher.pfIdentified            0                       # number of prefetch candidates identified
system.cpu.icache.prefetcher.pfInCache              0                       # number of redundant prefetches already in cache/mshr dropped
system.cpu.icache.prefetcher.pfRemovedFull            0                       # number of prefetches dropped due to prefetch queue size
system.cpu.icache.prefetcher.pfSpanPage             0                       # number of prefetches that crossed the page
system.cpu.idleCycles                          162095                       # Total number of cycles that the CPU has spent unscheduled due to idling
system.cpu.iew.branchMispredicts                29048                       # Number of branch mispredicts detected at execute
system.cpu.iew.exec_branches                   377511                       # Number of branches executed
system.cpu.iew.exec_nop                             0                       # number of nop insts executed
system.cpu.iew.exec_rate                     1.510259                       # Inst execution rate
system.cpu.iew.exec_refs                       775548                       # number of memory reference insts executed
system.cpu.iew.exec_stores                     194892                       # Number of stores executed
system.cpu.iew.exec_swp                             0                       # number of swp insts executed
system.cpu.iew.iewBlockCycles                  695988                       # Number of cycles IEW is blocking
system.cpu.iew.iewDispLoadInsts                611262                       # Number of dispatched load instructions
system.cpu.iew.iewDispNonSpecInsts                955                       # Number of dispatched non-speculative instructions
system.cpu.iew.iewDispSquashedInsts               568                       # Number of squashed instructions skipped by dispatch
system.cpu.iew.iewDispStoreInsts               205150                       # Number of dispatched store instructions
system.cpu.iew.iewDispatchedInsts             4507378                       # Number of instructions dispatched to IQ
system.cpu.iew.iewExecLoadInsts                580656                       # Number of load instructions executed
system.cpu.iew.iewExecSquashedInsts             34882                       # Number of squashed instructions skipped in execute
system.cpu.iew.iewExecutedInsts               4151713                       # Number of executed instructions
system.cpu.iew.iewIQFullEvents                   3393                       # Number of times the IQ has become full, causing a stall
system.cpu.iew.iewIdleCycles                        0                       # Number of cycles IEW is idle
system.cpu.iew.iewLSQFullEvents                  8314                       # Number of times the LSQ has become full, causing a stall
system.cpu.iew.iewSquashCycles                  24601                       # Number of cycles IEW is squashing
system.cpu.iew.iewUnblockCycles                 14597                       # Number of cycles IEW is unblocking
system.cpu.iew.lsq.thread0.blockedLoads             0                       # Number of blocked loads due to partial load-store forwarding
system.cpu.iew.lsq.thread0.cacheBlocked           628                       # Number of times an access to memory failed due to the cache being blocked
system.cpu.iew.lsq.thread0.forwLoads            40060                       # Number of loads that had data forwarded from stores
system.cpu.iew.lsq.thread0.ignoredResponses          238                       # Number of memory responses ignored because the instruction is squashed
system.cpu.iew.lsq.thread0.invAddrLoads             0                       # Number of loads ignored due to an invalid address
system.cpu.iew.lsq.thread0.invAddrSwpfs             0                       # Number of software prefetches ignored due to an invalid address
system.cpu.iew.lsq.thread0.memOrderViolation           71                       # Number of memory ordering violations
system.cpu.iew.lsq.thread0.rescheduledLoads            1                       # Number of loads that were rescheduled
system.cpu.iew.lsq.thread0.squashedLoads       115241                       # Number of loads squashed
system.cpu.iew.lsq.thread0.squashedStores        29705                       # Number of stores squashed
system.cpu.iew.memOrderViolationEvents             71                       # Number of memory order violations
system.cpu.iew.predictedNotTakenIncorrect        20831                       # Number of branches that were predicted not taken incorrectly
system.cpu.iew.predictedTakenIncorrect           8217                       # Number of branches that were predicted taken incorrectly
system.cpu.iew.wb_consumers                   5809982                       # num instructions consuming a value
system.cpu.iew.wb_count                       4129370                       # cumulative count of insts written-back
system.cpu.iew.wb_fanout                     0.567192                       # average fanout of values written-back
system.cpu.iew.wb_producers                   3295375                       # num instructions producing a value
system.cpu.iew.wb_rate                       1.502131                       # insts written-back per cycle
system.cpu.iew.wb_sent                        4136294                       # cumulative count of insts sent to commit
system.cpu.int_regfile_reads                  6431334                       # number of integer regfile reads
system.cpu.int_regfile_writes                 3564333                       # number of integer regfile writes
system.cpu.ipc                               0.756074                       # IPC: Instructions Per Cycle
system.cpu.ipc_total                         0.756074                       # IPC: Total IPC of All Threads
system.cpu.iq.FU_type_0::No_OpClass             27059      0.65%      0.65% # Type of FU issued
system.cpu.iq.FU_type_0::IntAlu               3273408     78.19%     78.83% # Type of FU issued
system.cpu.iq.FU_type_0::IntMult                 1459      0.03%     78.87% # Type of FU issued
system.cpu.iq.FU_type_0::IntDiv                 42292      1.01%     79.88% # Type of FU issued
system.cpu.iq.FU_type_0::FloatAdd                4599      0.11%     79.99% # Type of FU issued
system.cpu.iq.FU_type_0::FloatCmp                   0      0.00%     79.99% # Type of FU issued
system.cpu.iq.FU_type_0::FloatCvt                1292      0.03%     80.02% # Type of FU issued
system.cpu.iq.FU_type_0::FloatMult                  0      0.00%     80.02% # Type of FU issued
system.cpu.iq.FU_type_0::FloatMultAcc               0      0.00%     80.02% # Type of FU issued
system.cpu.iq.FU_type_0::FloatDiv                   0      0.00%     80.02% # Type of FU issued
system.cpu.iq.FU_type_0::FloatMisc                  0      0.00%     80.02% # Type of FU issued
system.cpu.iq.FU_type_0::FloatSqrt                  0      0.00%     80.02% # Type of FU issued
system.cpu.iq.FU_type_0::SimdAdd                 6934      0.17%     80.19% # Type of FU issued
system.cpu.iq.FU_type_0::SimdAddAcc                 0      0.00%     80.19% # Type of FU issued
system.cpu.iq.FU_type_0::SimdAlu                15637      0.37%     80.56% # Type of FU issued
system.cpu.iq.FU_type_0::SimdCmp                    0      0.00%     80.56% # Type of FU issued
system.cpu.iq.FU_type_0::SimdCvt                14642      0.35%     80.91% # Type of FU issued
system.cpu.iq.FU_type_0::SimdMisc                8407      0.20%     81.11% # Type of FU issued
system.cpu.iq.FU_type_0::SimdMult                   0      0.00%     81.11% # Type of FU issued
system.cpu.iq.FU_type_0::SimdMultAcc                0      0.00%     81.11% # Type of FU issued
system.cpu.iq.FU_type_0::SimdShift               2319      0.06%     81.16% # Type of FU issued
system.cpu.iq.FU_type_0::SimdShiftAcc               0      0.00%     81.16% # Type of FU issued
system.cpu.iq.FU_type_0::SimdDiv                    0      0.00%     81.16% # Type of FU issued
system.cpu.iq.FU_type_0::SimdSqrt                   0      0.00%     81.16% # Type of FU issued
system.cpu.iq.FU_type_0::SimdFloatAdd               0      0.00%     81.16% # Type of FU issued
system.cpu.iq.FU_type_0::SimdFloatAlu               0      0.00%     81.16% # Type of FU issued
system.cpu.iq.FU_type_0::SimdFloatCmp               0      0.00%     81.16% # Type of FU issued
system.cpu.iq.FU_type_0::SimdFloatCvt               0      0.00%     81.16% # Type of FU issued
system.cpu.iq.FU_type_0::SimdFloatDiv               0      0.00%     81.16% # Type of FU issued
system.cpu.iq.FU_type_0::SimdFloatMisc              0      0.00%     81.16% # Type of FU issued
system.cpu.iq.FU_type_0::SimdFloatMult              0      0.00%     81.16% # Type of FU issued
system.cpu.iq.FU_type_0::SimdFloatMultAcc            0      0.00%     81.16% # Type of FU issued
system.cpu.iq.FU_type_0::SimdFloatSqrt              0      0.00%     81.16% # Type of FU issued
system.cpu.iq.FU_type_0::SimdReduceAdd              0      0.00%     81.16% # Type of FU issued
system.cpu.iq.FU_type_0::SimdReduceAlu              0      0.00%     81.16% # Type of FU issued
system.cpu.iq.FU_type_0::SimdReduceCmp              0      0.00%     81.16% # Type of FU issued
system.cpu.iq.FU_type_0::SimdFloatReduceAdd            0      0.00%     81.16% # Type of FU issued
system.cpu.iq.FU_type_0::SimdFloatReduceCmp            0      0.00%     81.16% # Type of FU issued
system.cpu.iq.FU_type_0::SimdAes                    0      0.00%     81.16% # Type of FU issued
system.cpu.iq.FU_type_0::SimdAesMix                 0      0.00%     81.16% # Type of FU issued
system.cpu.iq.FU_type_0::SimdSha1Hash               0      0.00%     81.16% # Type of FU issued
system.cpu.iq.FU_type_0::SimdSha1Hash2              0      0.00%     81.16% # Type of FU issued
system.cpu.iq.FU_type_0::SimdSha256Hash             0      0.00%     81.16% # Type of FU issued
system.cpu.iq.FU_type_0::SimdSha256Hash2            0      0.00%     81.16% # Type of FU issued
system.cpu.iq.FU_type_0::SimdShaSigma2              0      0.00%     81.16% # Type of FU issued
system.cpu.iq.FU_type_0::SimdShaSigma3              0      0.00%     81.16% # Type of FU issued
system.cpu.iq.FU_type_0::SimdPredAlu                0      0.00%     81.16% # Type of FU issued
system.cpu.iq.FU_type_0::MemRead               564941     13.49%     94.66% # Type of FU issued
system.cpu.iq.FU_type_0::MemWrite              183895      4.39%     99.05% # Type of FU issued
system.cpu.iq.FU_type_0::FloatMemRead           26043      0.62%     99.67% # Type of FU issued
system.cpu.iq.FU_type_0::FloatMemWrite          13672      0.33%    100.00% # Type of FU issued
system.cpu.iq.FU_type_0::IprAccess                  0      0.00%    100.00% # Type of FU issued
system.cpu.iq.FU_type_0::InstPrefetch               0      0.00%    100.00% # Type of FU issued
system.cpu.iq.FU_type_0::total                4186599                       # Type of FU issued
system.cpu.iq.fp_alu_accesses                   94987                       # Number of floating point alu accesses
system.cpu.iq.fp_inst_queue_reads              191318                       # Number of floating instruction queue reads
system.cpu.iq.fp_inst_queue_wakeup_accesses        91401                       # Number of floating instruction queue wakeup accesses
system.cpu.iq.fp_inst_queue_writes             138641                       # Number of floating instruction queue writes
system.cpu.iq.fu_busy_cnt                           0                       # FU busy when requested
system.cpu.iq.fu_busy_rate                          0                       # FU busy rate (busy events/executed inst)
system.cpu.iq.fu_full::No_OpClass                   0                       # attempts to use FU when none available
system.cpu.iq.fu_full::IntAlu                       0                       # attempts to use FU when none available
system.cpu.iq.fu_full::IntMult                      0                       # attempts to use FU when none available
system.cpu.iq.fu_full::IntDiv                       0                       # attempts to use FU when none available
system.cpu.iq.fu_full::FloatAdd                     0                       # attempts to use FU when none available
system.cpu.iq.fu_full::FloatCmp                     0                       # attempts to use FU when none available
system.cpu.iq.fu_full::FloatCvt                     0                       # attempts to use FU when none available
system.cpu.iq.fu_full::FloatMult                    0                       # attempts to use FU when none available
system.cpu.iq.fu_full::FloatMultAcc                 0                       # attempts to use FU when none available
system.cpu.iq.fu_full::FloatDiv                     0                       # attempts to use FU when none available
system.cpu.iq.fu_full::FloatMisc                    0                       # attempts to use FU when none available
system.cpu.iq.fu_full::FloatSqrt                    0                       # attempts to use FU when none available
system.cpu.iq.fu_full::SimdAdd                      0                       # attempts to use FU when none available
system.cpu.iq.fu_full::SimdAddAcc                   0                       # attempts to use FU when none available
system.cpu.iq.fu_full::SimdAlu                      0                       # attempts to use FU when none available
system.cpu.iq.fu_full::SimdCmp                      0                       # attempts to use FU when none available
system.cpu.iq.fu_full::SimdCvt                      0                       # attempts to use FU when none available
system.cpu.iq.fu_full::SimdMisc                     0                       # attempts to use FU when none available
system.cpu.iq.fu_full::SimdMult                     0                       # attempts to use FU when none available
system.cpu.iq.fu_full::SimdMultAcc                  0                       # attempts to use FU when none available
system.cpu.iq.fu_full::SimdShift                    0                       # attempts to use FU when none available
system.cpu.iq.fu_full::SimdShiftAcc                 0                       # attempts to use FU when none available
system.cpu.iq.fu_full::SimdDiv                      0                       # attempts to use FU when none available
system.cpu.iq.fu_full::SimdSqrt                     0                       # attempts to use FU when none available
system.cpu.iq.fu_full::SimdFloatAdd                 0                       # attempts to use FU when none available
system.cpu.iq.fu_full::SimdFloatAlu                 0                       # attempts to use FU when none available
system.cpu.iq.fu_full::SimdFloatCmp                 0                       # attempts to use FU when none available
system.cpu.iq.fu_full::SimdFloatCvt                 0                       # attempts to use FU when none available
system.cpu.iq.fu_full::SimdFloatDiv                 0                       # attempts to use FU when none available
system.cpu.iq.fu_full::SimdFloatMisc                0                       # attempts to use FU when none available
system.cpu.iq.fu_full::SimdFloatMult                0                       # attempts to use FU when none available
system.cpu.iq.fu_full::SimdFloatMultAcc             0                       # attempts to use FU when none available
system.cpu.iq.fu_full::SimdFloatSqrt                0                       # attempts to use FU when none available
system.cpu.iq.fu_full::SimdReduceAdd                0                       # attempts to use FU when none available
system.cpu.iq.fu_full::SimdReduceAlu                0                       # attempts to use FU when none available
system.cpu.iq.fu_full::SimdReduceCmp                0                       # attempts to use FU when none available
system.cpu.iq.fu_full::SimdFloatReduceAdd            0                       # attempts to use FU when none available
system.cpu.iq.fu_full::SimdFloatReduceCmp            0                       # attempts to use FU when none available
system.cpu.iq.fu_full::SimdAes                      0                       # attempts to use FU when none available
system.cpu.iq.fu_full::SimdAesMix                   0                       # attempts to use FU when none available
system.cpu.iq.fu_full::SimdSha1Hash                 0                       # attempts to use FU when none available
system.cpu.iq.fu_full::SimdSha1Hash2                0                       # attempts to use FU when none available
system.cpu.iq.fu_full::SimdSha256Hash               0                       # attempts to use FU when none available
system.cpu.iq.fu_full::SimdSha256Hash2              0                       # attempts to use FU when none available
system.cpu.iq.fu_full::SimdShaSigma2                0                       # attempts to use FU when none available
system.cpu.iq.fu_full::SimdShaSigma3                0                       # attempts to use FU when none available
system.cpu.iq.fu_full::SimdPredAlu                  0                       # attempts to use FU when none available
system.cpu.iq.fu_full::MemRead                      0                       # attempts to use FU when none available
system.cpu.iq.fu_full::MemWrite                     0                       # attempts to use FU when none available
system.cpu.iq.fu_full::FloatMemRead                 0                       # attempts to use FU when none available
system.cpu.iq.fu_full::FloatMemWrite                0                       # attempts to use FU when none available
system.cpu.iq.fu_full::IprAccess                    0                       # attempts to use FU when none available
system.cpu.iq.fu_full::InstPrefetch                 0                       # attempts to use FU when none available
system.cpu.iq.int_alu_accesses                4064553                       # Number of integer alu accesses
system.cpu.iq.int_inst_queue_reads           10786851                       # Number of integer instruction queue reads
system.cpu.iq.int_inst_queue_wakeup_accesses      4037969                       # Number of integer instruction queue wakeup accesses
system.cpu.iq.int_inst_queue_writes           5253586                       # Number of integer instruction queue writes
system.cpu.iq.iqInstsAdded                    4506245                       # Number of instructions added to the IQ (excludes non-spec)
system.cpu.iq.iqInstsIssued                   4186599                       # Number of instructions issued
system.cpu.iq.iqNonSpecInstsAdded                1133                       # Number of non-speculative instructions added to the IQ
system.cpu.iq.iqSquashedInstsExamined          884779                       # Number of squashed instructions iterated over during squash; mainly for profiling
system.cpu.iq.iqSquashedInstsIssued             18062                       # Number of squashed instructions issued
system.cpu.iq.iqSquashedNonSpecRemoved            373                       # Number of squashed non-spec instructions that were removed
system.cpu.iq.iqSquashedOperandsExamined      1322389                       # Number of squashed operands that are examined and possibly removed from graph
system.cpu.iq.issued_per_cycle::samples       2586913                       # Number of insts issued each cycle
system.cpu.iq.issued_per_cycle::mean         1.618376                       # Number of insts issued each cycle
system.cpu.iq.issued_per_cycle::stdev        1.669388                       # Number of insts issued each cycle
system.cpu.iq.issued_per_cycle::underflows            0      0.00%      0.00% # Number of insts issued each cycle
system.cpu.iq.issued_per_cycle::0             1172472     45.32%     45.32% # Number of insts issued each cycle
system.cpu.iq.issued_per_cycle::1              174581      6.75%     52.07% # Number of insts issued each cycle
system.cpu.iq.issued_per_cycle::2              302230     11.68%     63.75% # Number of insts issued each cycle
system.cpu.iq.issued_per_cycle::3              342962     13.26%     77.01% # Number of insts issued each cycle
system.cpu.iq.issued_per_cycle::4              594668     22.99%    100.00% # Number of insts issued each cycle
system.cpu.iq.issued_per_cycle::overflows            0      0.00%    100.00% # Number of insts issued each cycle
system.cpu.iq.issued_per_cycle::min_value            0                       # Number of insts issued each cycle
system.cpu.iq.issued_per_cycle::max_value            4                       # Number of insts issued each cycle
system.cpu.iq.issued_per_cycle::total         2586913                       # Number of insts issued each cycle
system.cpu.iq.rate                           1.522949                       # Inst issue rate
system.cpu.iq.vec_alu_accesses                      0                       # Number of vector alu accesses
system.cpu.iq.vec_inst_queue_reads                  0                       # Number of vector instruction queue reads
system.cpu.iq.vec_inst_queue_wakeup_accesses            0                       # Number of vector instruction queue wakeup accesses
system.cpu.iq.vec_inst_queue_writes                 0                       # Number of vector instruction queue writes
system.cpu.itb.rdAccesses                           0                       # TLB accesses on read requests
system.cpu.itb.rdMisses                             0                       # TLB misses on read requests
system.cpu.itb.wrAccesses                      243581                       # TLB accesses on write requests
system.cpu.itb.wrMisses                           382                       # TLB misses on write requests
system.cpu.memDep0.conflictingLoads              7841                       # Number of conflicting loads.
system.cpu.memDep0.conflictingStores             2444                       # Number of conflicting stores.
system.cpu.memDep0.insertedLoads               611262                       # Number of loads inserted to the mem dependence unit.
system.cpu.memDep0.insertedStores              205150                       # Number of stores inserted to the mem dependence unit.
system.cpu.misc_regfile_reads                 1565767                       # number of misc regfile reads
system.cpu.misc_regfile_writes                    702                       # number of misc regfile writes
system.cpu.numCycles                          2749008                       # number of cpu cycles simulated
system.cpu.numWorkItemsCompleted                    0                       # number of work items this cpu completed
system.cpu.numWorkItemsStarted                      0                       # number of work items this cpu started
system.cpu.process.numSyscalls                     57                       # Number of system calls
system.cpu.rename.BlockCycles                  843396                       # Number of cycles rename is blocking
system.cpu.rename.CommittedMaps               4953571                       # Number of HB maps that are committed
system.cpu.rename.FullRegisterEvents               54                       # Number of times there has been no free registers
system.cpu.rename.IQFullEvents                  46932                       # Number of times rename has blocked due to IQ full
system.cpu.rename.IdleCycles                   349823                       # Number of cycles rename is idle
system.cpu.rename.LQFullEvents                  14510                       # Number of times rename has blocked due to LQ full
system.cpu.rename.ROBFullEvents                  4394                       # Number of times rename has blocked due to ROB full
system.cpu.rename.RenameLookups              12147549                       # Number of register rename lookups that rename has made
system.cpu.rename.RenamedInsts                4649110                       # Number of instructions processed by rename
system.cpu.rename.RenamedOperands             6347835                       # Number of destination operands rename has renamed
system.cpu.rename.RunCycles                   1177746                       # Number of cycles rename is running
system.cpu.rename.SQFullEvents                  72200                       # Number of times rename has blocked due to SQ full
system.cpu.rename.SquashCycles                  24601                       # Number of cycles rename is squashing
system.cpu.rename.UnblockCycles                171000                       # Number of cycles rename is unblocking
system.cpu.rename.UndoneMaps                  1394238                       # Number of HB maps that are undone due to squashing
system.cpu.rename.fp_rename_lookups            165013                       # Number of floating rename lookups
system.cpu.rename.int_rename_lookups          7379712                       # Number of integer rename lookups
system.cpu.rename.serializeStallCycles          20347                       # count of cycles rename stalled for serializing inst
system.cpu.rename.serializingInsts                900                       # count of serializing insts renamed
system.cpu.rename.skidInsts                    207702                       # count of insts added to the skid buffer
system.cpu.rename.tempSerializingInsts            952                       # count of temporary serializing insts renamed
system.cpu.rob.rob_reads                      6251442                       # The number of ROB reads
system.cpu.rob.rob_writes                     9257015                       # The number of ROB writes
system.cpu.timesIdled                            1625                       # Number of times that the entire CPU went into an idle state and unscheduled itself
system.l2bus.snoop_filter.hit_multi_requests           13                       # Number of requests hitting in the snoop filter with multiple (>1) holders of the requested data.
system.l2bus.snoop_filter.hit_multi_snoops            0                       # Number of snoops hitting in the snoop filter with multiple (>1) holders of the requested data.
system.l2bus.snoop_filter.hit_single_requests        18591                       # Number of requests hitting in the snoop filter with a single holder of the requested data.
system.l2bus.snoop_filter.hit_single_snoops          437                       # Number of snoops hitting in the snoop filter with a single holder of the requested data.
system.l2bus.snoop_filter.tot_requests          38462                       # Total number of requests made to the snoop filter.
system.l2bus.snoop_filter.tot_snoops              437                       # Total number of snoops made to the snoop filter.
system.l2cache.prefetcher.num_hwpf_issued          661                       # number of hwpf issued
system.l2cache.prefetcher.pfBufferHit               0                       # number of redundant prefetches already in prefetch queue
system.l2cache.prefetcher.pfIdentified            661                       # number of prefetch candidates identified
system.l2cache.prefetcher.pfInCache                 0                       # number of redundant prefetches already in cache/mshr dropped
system.l2cache.prefetcher.pfRemovedFull             0                       # number of prefetches dropped due to prefetch queue size
system.l2cache.prefetcher.pfSpanPage               91                       # number of prefetches that crossed the page
system.membus.snoop_filter.hit_multi_requests            0                       # Number of requests hitting in the snoop filter with multiple (>1) holders of the requested data.
system.membus.snoop_filter.hit_multi_snoops            0                       # Number of snoops hitting in the snoop filter with multiple (>1) holders of the requested data.
system.membus.snoop_filter.hit_single_requests         9448                       # Number of requests hitting in the snoop filter with a single holder of the requested data.
system.membus.snoop_filter.hit_single_snoops            0                       # Number of snoops hitting in the snoop filter with a single holder of the requested data.
system.membus.snoop_filter.tot_requests         23020                       # Total number of requests made to the snoop filter.
system.membus.snoop_filter.tot_snoops               0                       # Total number of snoops made to the snoop filter.
system.membus.pwrStateResidencyTicks::UNDEFINED   1099602800                       # Cumulative time (in ticks) in various power states
system.membus.trans_dist::ReadResp              12244                       # Transaction distribution
system.membus.trans_dist::WritebackDirty         1349                       # Transaction distribution
system.membus.trans_dist::CleanEvict             8099                       # Transaction distribution
system.membus.trans_dist::ReadExReq              1328                       # Transaction distribution
system.membus.trans_dist::ReadExResp             1328                       # Transaction distribution
system.membus.trans_dist::ReadSharedReq         12244                       # Transaction distribution
system.membus.pkt_count_system.l2cache.mem_side::system.mem_ctrl.port        36592                       # Packet count per connected master and slave (bytes)
system.membus.pkt_count_system.l2cache.mem_side::total        36592                       # Packet count per connected master and slave (bytes)
system.membus.pkt_count::total                  36592                       # Packet count per connected master and slave (bytes)
system.membus.pkt_size_system.l2cache.mem_side::system.mem_ctrl.port       954944                       # Cumulative packet size per connected master and slave (bytes)
system.membus.pkt_size_system.l2cache.mem_side::total       954944                       # Cumulative packet size per connected master and slave (bytes)
system.membus.pkt_size::total                  954944                       # Cumulative packet size per connected master and slave (bytes)
system.membus.snoops                                0                       # Total snoops (count)
system.membus.snoopTraffic                          0                       # Total snoop traffic (bytes)
system.membus.snoop_fanout::samples             13572                       # Request fanout histogram
system.membus.snoop_fanout::mean                    0                       # Request fanout histogram
system.membus.snoop_fanout::stdev                   0                       # Request fanout histogram
system.membus.snoop_fanout::underflows              0      0.00%      0.00% # Request fanout histogram
system.membus.snoop_fanout::0                   13572    100.00%    100.00% # Request fanout histogram
system.membus.snoop_fanout::1                       0      0.00%    100.00% # Request fanout histogram
system.membus.snoop_fanout::overflows               0      0.00%    100.00% # Request fanout histogram
system.membus.snoop_fanout::min_value               0                       # Request fanout histogram
system.membus.snoop_fanout::max_value               0                       # Request fanout histogram
system.membus.snoop_fanout::total               13572                       # Request fanout histogram
system.membus.reqLayer2.occupancy            11390227                       # Layer occupancy (ticks)
system.membus.reqLayer2.utilization               1.0                       # Layer utilization (%)
system.membus.respLayer0.occupancy           29466873                       # Layer occupancy (ticks)
system.membus.respLayer0.utilization              2.7                       # Layer utilization (%)
system.l2bus.pwrStateResidencyTicks::UNDEFINED   1099602800                       # Cumulative time (in ticks) in various power states
system.l2bus.trans_dist::ReadResp               17780                       # Transaction distribution
system.l2bus.trans_dist::WritebackDirty          4125                       # Transaction distribution
system.l2bus.trans_dist::CleanEvict             24003                       # Transaction distribution
system.l2bus.trans_dist::HardPFReq                936                       # Transaction distribution
system.l2bus.trans_dist::ReadExReq               2091                       # Transaction distribution
system.l2bus.trans_dist::ReadExResp              2091                       # Transaction distribution
system.l2bus.trans_dist::ReadSharedReq          17780                       # Transaction distribution
system.l2bus.pkt_count_system.cpu.icache.mem_side::system.l2cache.cpu_side         8495                       # Packet count per connected master and slave (bytes)
system.l2bus.pkt_count_system.cpu.dcache.mem_side::system.l2cache.cpu_side        49833                       # Packet count per connected master and slave (bytes)
system.l2bus.pkt_count::total                   58328                       # Packet count per connected master and slave (bytes)
system.l2bus.pkt_size_system.cpu.icache.mem_side::system.l2cache.cpu_side       186688                       # Cumulative packet size per connected master and slave (bytes)
system.l2bus.pkt_size_system.cpu.dcache.mem_side::system.l2cache.cpu_side      1262400                       # Cumulative packet size per connected master and slave (bytes)
system.l2bus.pkt_size::total                  1449088                       # Cumulative packet size per connected master and slave (bytes)
system.l2bus.snoops                             10478                       # Total snoops (count)
system.l2bus.snoopTraffic                       86656                       # Total snoop traffic (bytes)
system.l2bus.snoop_fanout::samples              30344                       # Request fanout histogram
system.l2bus.snoop_fanout::mean              0.014830                       # Request fanout histogram
system.l2bus.snoop_fanout::stdev             0.120874                       # Request fanout histogram
system.l2bus.snoop_fanout::underflows               0      0.00%      0.00% # Request fanout histogram
system.l2bus.snoop_fanout::0                    29894     98.52%     98.52% # Request fanout histogram
system.l2bus.snoop_fanout::1                      450      1.48%    100.00% # Request fanout histogram
system.l2bus.snoop_fanout::2                        0      0.00%    100.00% # Request fanout histogram
system.l2bus.snoop_fanout::overflows                0      0.00%    100.00% # Request fanout histogram
system.l2bus.snoop_fanout::min_value                0                       # Request fanout histogram
system.l2bus.snoop_fanout::max_value                1                       # Request fanout histogram
system.l2bus.snoop_fanout::total                30344                       # Request fanout histogram
system.l2bus.respLayer1.occupancy            20344797                       # Layer occupancy (ticks)
system.l2bus.respLayer1.utilization               1.9                       # Layer utilization (%)
system.l2bus.reqLayer0.occupancy             19038608                       # Layer occupancy (ticks)
system.l2bus.reqLayer0.utilization                1.7                       # Layer utilization (%)
system.l2bus.respLayer0.occupancy             3501999                       # Layer occupancy (ticks)
system.l2bus.respLayer0.utilization               0.3                       # Layer utilization (%)
system.clk_domain.clock                           400                       # Clock period in ticks
system.clk_domain.voltage_domain.voltage            1                       # Voltage in Volts
system.cpu.pwrStateResidencyTicks::ON      1099602800                       # Cumulative time (in ticks) in various power states
system.cpu.icache.pwrStateResidencyTicks::UNDEFINED   1099602800                       # Cumulative time (in ticks) in various power states
system.cpu.icache.demand_hits::.cpu.inst       239842                       # number of demand (read+write) hits
system.cpu.icache.demand_hits::total           239842                       # number of demand (read+write) hits
system.cpu.icache.overall_hits::.cpu.inst       239842                       # number of overall hits
system.cpu.icache.overall_hits::total          239842                       # number of overall hits
system.cpu.icache.demand_misses::.cpu.inst         3609                       # number of demand (read+write) misses
system.cpu.icache.demand_misses::total           3609                       # number of demand (read+write) misses
system.cpu.icache.overall_misses::.cpu.inst         3609                       # number of overall misses
system.cpu.icache.overall_misses::total          3609                       # number of overall misses
system.cpu.icache.demand_miss_latency::.cpu.inst    177879999                       # number of demand (read+write) miss cycles
system.cpu.icache.demand_miss_latency::total    177879999                       # number of demand (read+write) miss cycles
system.cpu.icache.overall_miss_latency::.cpu.inst    177879999                       # number of overall miss cycles
system.cpu.icache.overall_miss_latency::total    177879999                       # number of overall miss cycles
system.cpu.icache.demand_accesses::.cpu.inst       243451                       # number of demand (read+write) accesses
system.cpu.icache.demand_accesses::total       243451                       # number of demand (read+write) accesses
system.cpu.icache.overall_accesses::.cpu.inst       243451                       # number of overall (read+write) accesses
system.cpu.icache.overall_accesses::total       243451                       # number of overall (read+write) accesses
system.cpu.icache.demand_miss_rate::.cpu.inst     0.014824                       # miss rate for demand accesses
system.cpu.icache.demand_miss_rate::total     0.014824                       # miss rate for demand accesses
system.cpu.icache.overall_miss_rate::.cpu.inst     0.014824                       # miss rate for overall accesses
system.cpu.icache.overall_miss_rate::total     0.014824                       # miss rate for overall accesses
system.cpu.icache.demand_avg_miss_latency::.cpu.inst 49287.891106                       # average overall miss latency
system.cpu.icache.demand_avg_miss_latency::total 49287.891106                       # average overall miss latency
system.cpu.icache.overall_avg_miss_latency::.cpu.inst 49287.891106                       # average overall miss latency
system.cpu.icache.overall_avg_miss_latency::total 49287.891106                       # average overall miss latency
system.cpu.icache.blocked_cycles::no_mshrs           52                       # number of cycles access was blocked
system.cpu.icache.blocked_cycles::no_targets            0                       # number of cycles access was blocked
system.cpu.icache.blocked::no_mshrs                 2                       # number of cycles access was blocked
system.cpu.icache.blocked::no_targets               0                       # number of cycles access was blocked
system.cpu.icache.avg_blocked_cycles::no_mshrs           26                       # average number of cycles each access was blocked
system.cpu.icache.avg_blocked_cycles::no_targets          nan                       # average number of cycles each access was blocked
system.cpu.icache.writebacks::.writebacks            2                       # number of writebacks
system.cpu.icache.writebacks::total                 2                       # number of writebacks
system.cpu.icache.demand_mshr_hits::.cpu.inst          691                       # number of demand (read+write) MSHR hits
system.cpu.icache.demand_mshr_hits::total          691                       # number of demand (read+write) MSHR hits
system.cpu.icache.overall_mshr_hits::.cpu.inst          691                       # number of overall MSHR hits
system.cpu.icache.overall_mshr_hits::total          691                       # number of overall MSHR hits
system.cpu.icache.demand_mshr_misses::.cpu.inst         2918                       # number of demand (read+write) MSHR misses
system.cpu.icache.demand_mshr_misses::total         2918                       # number of demand (read+write) MSHR misses
system.cpu.icache.overall_mshr_misses::.cpu.inst         2918                       # number of overall MSHR misses
system.cpu.icache.overall_mshr_misses::total         2918                       # number of overall MSHR misses
system.cpu.icache.demand_mshr_miss_latency::.cpu.inst    143485999                       # number of demand (read+write) MSHR miss cycles
system.cpu.icache.demand_mshr_miss_latency::total    143485999                       # number of demand (read+write) MSHR miss cycles
system.cpu.icache.overall_mshr_miss_latency::.cpu.inst    143485999                       # number of overall MSHR miss cycles
system.cpu.icache.overall_mshr_miss_latency::total    143485999                       # number of overall MSHR miss cycles
system.cpu.icache.demand_mshr_miss_rate::.cpu.inst     0.011986                       # mshr miss rate for demand accesses
system.cpu.icache.demand_mshr_miss_rate::total     0.011986                       # mshr miss rate for demand accesses
system.cpu.icache.overall_mshr_miss_rate::.cpu.inst     0.011986                       # mshr miss rate for overall accesses
system.cpu.icache.overall_mshr_miss_rate::total     0.011986                       # mshr miss rate for overall accesses
system.cpu.icache.demand_avg_mshr_miss_latency::.cpu.inst 49172.720699                       # average overall mshr miss latency
system.cpu.icache.demand_avg_mshr_miss_latency::total 49172.720699                       # average overall mshr miss latency
system.cpu.icache.overall_avg_mshr_miss_latency::.cpu.inst 49172.720699                       # average overall mshr miss latency
system.cpu.icache.overall_avg_mshr_miss_latency::total 49172.720699                       # average overall mshr miss latency
system.cpu.icache.replacements                   2662                       # number of replacements
system.cpu.icache.ReadReq_hits::.cpu.inst       239842                       # number of ReadReq hits
system.cpu.icache.ReadReq_hits::total          239842                       # number of ReadReq hits
system.cpu.icache.ReadReq_misses::.cpu.inst         3609                       # number of ReadReq misses
system.cpu.icache.ReadReq_misses::total          3609                       # number of ReadReq misses
system.cpu.icache.ReadReq_miss_latency::.cpu.inst    177879999                       # number of ReadReq miss cycles
system.cpu.icache.ReadReq_miss_latency::total    177879999                       # number of ReadReq miss cycles
system.cpu.icache.ReadReq_accesses::.cpu.inst       243451                       # number of ReadReq accesses(hits+misses)
system.cpu.icache.ReadReq_accesses::total       243451                       # number of ReadReq accesses(hits+misses)
system.cpu.icache.ReadReq_miss_rate::.cpu.inst     0.014824                       # miss rate for ReadReq accesses
system.cpu.icache.ReadReq_miss_rate::total     0.014824                       # miss rate for ReadReq accesses
system.cpu.icache.ReadReq_avg_miss_latency::.cpu.inst 49287.891106                       # average ReadReq miss latency
system.cpu.icache.ReadReq_avg_miss_latency::total 49287.891106                       # average ReadReq miss latency
system.cpu.icache.ReadReq_mshr_hits::.cpu.inst          691                       # number of ReadReq MSHR hits
system.cpu.icache.ReadReq_mshr_hits::total          691                       # number of ReadReq MSHR hits
system.cpu.icache.ReadReq_mshr_misses::.cpu.inst         2918                       # number of ReadReq MSHR misses
system.cpu.icache.ReadReq_mshr_misses::total         2918                       # number of ReadReq MSHR misses
system.cpu.icache.ReadReq_mshr_miss_latency::.cpu.inst    143485999                       # number of ReadReq MSHR miss cycles
system.cpu.icache.ReadReq_mshr_miss_latency::total    143485999                       # number of ReadReq MSHR miss cycles
system.cpu.icache.ReadReq_mshr_miss_rate::.cpu.inst     0.011986                       # mshr miss rate for ReadReq accesses
system.cpu.icache.ReadReq_mshr_miss_rate::total     0.011986                       # mshr miss rate for ReadReq accesses
system.cpu.icache.ReadReq_avg_mshr_miss_latency::.cpu.inst 49172.720699                       # average ReadReq mshr miss latency
system.cpu.icache.ReadReq_avg_mshr_miss_latency::total 49172.720699                       # average ReadReq mshr miss latency
system.cpu.icache.prefetcher.pwrStateResidencyTicks::UNDEFINED   1099602800                       # Cumulative time (in ticks) in various power states
system.cpu.icache.tags.pwrStateResidencyTicks::UNDEFINED   1099602800                       # Cumulative time (in ticks) in various power states
system.cpu.icache.tags.tagsinuse           253.499659                       # Cycle average of tags in use
system.cpu.icache.tags.total_refs              233882                       # Total number of references to valid blocks.
system.cpu.icache.tags.sampled_refs              2662                       # Sample count of references to valid blocks.
system.cpu.icache.tags.avg_refs             87.859504                       # Average number of references to valid blocks.
system.cpu.icache.tags.warmup_cycle             66400                       # Cycle when the warmup percentage was hit.
system.cpu.icache.tags.occ_blocks::.cpu.inst   253.499659                       # Average occupied blocks per requestor
system.cpu.icache.tags.occ_percent::.cpu.inst     0.990233                       # Average percentage of cache occupancy
system.cpu.icache.tags.occ_percent::total     0.990233                       # Average percentage of cache occupancy
system.cpu.icache.tags.occ_task_id_blocks::1024          256                       # Occupied blocks per task id
system.cpu.icache.tags.age_task_id_blocks_1024::0          112                       # Occupied blocks per task id
system.cpu.icache.tags.age_task_id_blocks_1024::1          118                       # Occupied blocks per task id
system.cpu.icache.tags.age_task_id_blocks_1024::2           24                       # Occupied blocks per task id
system.cpu.icache.tags.age_task_id_blocks_1024::3            2                       # Occupied blocks per task id
system.cpu.icache.tags.occ_task_id_percent::1024            1                       # Percentage of cache occupancy per task id
system.cpu.icache.tags.tag_accesses            489820                       # Number of tag accesses
system.cpu.icache.tags.data_accesses           489820                       # Number of data accesses
system.cpu.dtb.walker.pwrStateResidencyTicks::UNDEFINED   1099602800                       # Cumulative time (in ticks) in various power states
system.cpu.interrupts.clk_domain.clock           6400                       # Clock period in ticks
system.cpu.itb.walker.pwrStateResidencyTicks::UNDEFINED   1099602800                       # Cumulative time (in ticks) in various power states
system.cpu.dcache.pwrStateResidencyTicks::UNDEFINED   1099602800                       # Cumulative time (in ticks) in various power states
system.cpu.dcache.demand_hits::.cpu.data       678333                       # number of demand (read+write) hits
system.cpu.dcache.demand_hits::total           678333                       # number of demand (read+write) hits
system.cpu.dcache.overall_hits::.cpu.data       678333                       # number of overall hits
system.cpu.dcache.overall_hits::total          678333                       # number of overall hits
system.cpu.dcache.demand_misses::.cpu.data        34983                       # number of demand (read+write) misses
system.cpu.dcache.demand_misses::total          34983                       # number of demand (read+write) misses
system.cpu.dcache.overall_misses::.cpu.data        34983                       # number of overall misses
system.cpu.dcache.overall_misses::total         34983                       # number of overall misses
system.cpu.dcache.demand_miss_latency::.cpu.data   1691212399                       # number of demand (read+write) miss cycles
system.cpu.dcache.demand_miss_latency::total   1691212399                       # number of demand (read+write) miss cycles
system.cpu.dcache.overall_miss_latency::.cpu.data   1691212399                       # number of overall miss cycles
system.cpu.dcache.overall_miss_latency::total   1691212399                       # number of overall miss cycles
system.cpu.dcache.demand_accesses::.cpu.data       713316                       # number of demand (read+write) accesses
system.cpu.dcache.demand_accesses::total       713316                       # number of demand (read+write) accesses
system.cpu.dcache.overall_accesses::.cpu.data       713316                       # number of overall (read+write) accesses
system.cpu.dcache.overall_accesses::total       713316                       # number of overall (read+write) accesses
system.cpu.dcache.demand_miss_rate::.cpu.data     0.049043                       # miss rate for demand accesses
system.cpu.dcache.demand_miss_rate::total     0.049043                       # miss rate for demand accesses
system.cpu.dcache.overall_miss_rate::.cpu.data     0.049043                       # miss rate for overall accesses
system.cpu.dcache.overall_miss_rate::total     0.049043                       # miss rate for overall accesses
system.cpu.dcache.demand_avg_miss_latency::.cpu.data 48343.835549                       # average overall miss latency
system.cpu.dcache.demand_avg_miss_latency::total 48343.835549                       # average overall miss latency
system.cpu.dcache.overall_avg_miss_latency::.cpu.data 48343.835549                       # average overall miss latency
system.cpu.dcache.overall_avg_miss_latency::total 48343.835549                       # average overall miss latency
system.cpu.dcache.blocked_cycles::no_mshrs        28590                       # number of cycles access was blocked
system.cpu.dcache.blocked_cycles::no_targets          181                       # number of cycles access was blocked
system.cpu.dcache.blocked::no_mshrs               784                       # number of cycles access was blocked
system.cpu.dcache.blocked::no_targets               2                       # number of cycles access was blocked
system.cpu.dcache.avg_blocked_cycles::no_mshrs    36.466837                       # average number of cycles each access was blocked
system.cpu.dcache.avg_blocked_cycles::no_targets    90.500000                       # average number of cycles each access was blocked
system.cpu.dcache.unused_prefetches              1769                       # number of HardPF blocks evicted w/o reference
system.cpu.dcache.writebacks::.writebacks         2774                       # number of writebacks
system.cpu.dcache.writebacks::total              2774                       # number of writebacks
system.cpu.dcache.demand_mshr_hits::.cpu.data        22378                       # number of demand (read+write) MSHR hits
system.cpu.dcache.demand_mshr_hits::total        22378                       # number of demand (read+write) MSHR hits
system.cpu.dcache.overall_mshr_hits::.cpu.data        22378                       # number of overall MSHR hits
system.cpu.dcache.overall_mshr_hits::total        22378                       # number of overall MSHR hits
system.cpu.dcache.demand_mshr_misses::.cpu.data        12605                       # number of demand (read+write) MSHR misses
system.cpu.dcache.demand_mshr_misses::total        12605                       # number of demand (read+write) MSHR misses
system.cpu.dcache.overall_mshr_misses::.cpu.data        12605                       # number of overall MSHR misses
system.cpu.dcache.overall_mshr_misses::.cpu.dcache.prefetcher         4348                       # number of overall MSHR misses
system.cpu.dcache.overall_mshr_misses::total        16953                       # number of overall MSHR misses
system.cpu.dcache.demand_mshr_miss_latency::.cpu.data    578640399                       # number of demand (read+write) MSHR miss cycles
system.cpu.dcache.demand_mshr_miss_latency::total    578640399                       # number of demand (read+write) MSHR miss cycles
system.cpu.dcache.overall_mshr_miss_latency::.cpu.data    578640399                       # number of overall MSHR miss cycles
system.cpu.dcache.overall_mshr_miss_latency::.cpu.dcache.prefetcher    249074896                       # number of overall MSHR miss cycles
system.cpu.dcache.overall_mshr_miss_latency::total    827715295                       # number of overall MSHR miss cycles
system.cpu.dcache.demand_mshr_miss_rate::.cpu.data     0.017671                       # mshr miss rate for demand accesses
system.cpu.dcache.demand_mshr_miss_rate::total     0.017671                       # mshr miss rate for demand accesses
system.cpu.dcache.overall_mshr_miss_rate::.cpu.data     0.017671                       # mshr miss rate for overall accesses
system.cpu.dcache.overall_mshr_miss_rate::.cpu.dcache.prefetcher          inf                       # mshr miss rate for overall accesses
system.cpu.dcache.overall_mshr_miss_rate::total     0.023766                       # mshr miss rate for overall accesses
system.cpu.dcache.demand_avg_mshr_miss_latency::.cpu.data 45905.624673                       # average overall mshr miss latency
system.cpu.dcache.demand_avg_mshr_miss_latency::total 45905.624673                       # average overall mshr miss latency
system.cpu.dcache.overall_avg_mshr_miss_latency::.cpu.data 45905.624673                       # average overall mshr miss latency
system.cpu.dcache.overall_avg_mshr_miss_latency::.cpu.dcache.prefetcher 57284.934683                       # average overall mshr miss latency
system.cpu.dcache.overall_avg_mshr_miss_latency::total 48824.119330                       # average overall mshr miss latency
system.cpu.dcache.replacements                  15929                       # number of replacements
system.cpu.dcache.ReadReq_hits::.cpu.data       505010                       # number of ReadReq hits
system.cpu.dcache.ReadReq_hits::total          505010                       # number of ReadReq hits
system.cpu.dcache.ReadReq_misses::.cpu.data        32854                       # number of ReadReq misses
system.cpu.dcache.ReadReq_misses::total         32854                       # number of ReadReq misses
system.cpu.dcache.ReadReq_miss_latency::.cpu.data   1587026000                       # number of ReadReq miss cycles
system.cpu.dcache.ReadReq_miss_latency::total   1587026000                       # number of ReadReq miss cycles
system.cpu.dcache.ReadReq_accesses::.cpu.data       537864                       # number of ReadReq accesses(hits+misses)
system.cpu.dcache.ReadReq_accesses::total       537864                       # number of ReadReq accesses(hits+misses)
system.cpu.dcache.ReadReq_miss_rate::.cpu.data     0.061082                       # miss rate for ReadReq accesses
system.cpu.dcache.ReadReq_miss_rate::total     0.061082                       # miss rate for ReadReq accesses
system.cpu.dcache.ReadReq_avg_miss_latency::.cpu.data 48305.411822                       # average ReadReq miss latency
system.cpu.dcache.ReadReq_avg_miss_latency::total 48305.411822                       # average ReadReq miss latency
system.cpu.dcache.ReadReq_mshr_hits::.cpu.data        22339                       # number of ReadReq MSHR hits
system.cpu.dcache.ReadReq_mshr_hits::total        22339                       # number of ReadReq MSHR hits
system.cpu.dcache.ReadReq_mshr_misses::.cpu.data        10515                       # number of ReadReq MSHR misses
system.cpu.dcache.ReadReq_mshr_misses::total        10515                       # number of ReadReq MSHR misses
system.cpu.dcache.ReadReq_mshr_miss_latency::.cpu.data    477591200                       # number of ReadReq MSHR miss cycles
system.cpu.dcache.ReadReq_mshr_miss_latency::total    477591200                       # number of ReadReq MSHR miss cycles
system.cpu.dcache.ReadReq_mshr_miss_rate::.cpu.data     0.019550                       # mshr miss rate for ReadReq accesses
system.cpu.dcache.ReadReq_mshr_miss_rate::total     0.019550                       # mshr miss rate for ReadReq accesses
system.cpu.dcache.ReadReq_avg_mshr_miss_latency::.cpu.data 45419.990490                       # average ReadReq mshr miss latency
system.cpu.dcache.ReadReq_avg_mshr_miss_latency::total 45419.990490                       # average ReadReq mshr miss latency
system.cpu.dcache.WriteReq_hits::.cpu.data       173323                       # number of WriteReq hits
system.cpu.dcache.WriteReq_hits::total         173323                       # number of WriteReq hits
system.cpu.dcache.WriteReq_misses::.cpu.data         2129                       # number of WriteReq misses
system.cpu.dcache.WriteReq_misses::total         2129                       # number of WriteReq misses
system.cpu.dcache.WriteReq_miss_latency::.cpu.data    104186399                       # number of WriteReq miss cycles
system.cpu.dcache.WriteReq_miss_latency::total    104186399                       # number of WriteReq miss cycles
system.cpu.dcache.WriteReq_accesses::.cpu.data       175452                       # number of WriteReq accesses(hits+misses)
system.cpu.dcache.WriteReq_accesses::total       175452                       # number of WriteReq accesses(hits+misses)
system.cpu.dcache.WriteReq_miss_rate::.cpu.data     0.012134                       # miss rate for WriteReq accesses
system.cpu.dcache.WriteReq_miss_rate::total     0.012134                       # miss rate for WriteReq accesses
system.cpu.dcache.WriteReq_avg_miss_latency::.cpu.data 48936.777360                       # average WriteReq miss latency
system.cpu.dcache.WriteReq_avg_miss_latency::total 48936.777360                       # average WriteReq miss latency
system.cpu.dcache.WriteReq_mshr_hits::.cpu.data           39                       # number of WriteReq MSHR hits
system.cpu.dcache.WriteReq_mshr_hits::total           39                       # number of WriteReq MSHR hits
[...]
system.l2cache.demand_mshr_misses::.cpu.data          120                       # number of demand (read+write) MSHR misses
system.l2cache.demand_mshr_misses::.cpu.dcache.prefetcher           30                       # number of demand (read+write) MSHR misses
system.l2cache.demand_mshr_misses::total          380                       # number of demand (read+write) MSHR misses
system.l2cache.overall_mshr_misses::.cpu.inst          230                       # number of overall MSHR misses
system.l2cache.overall_mshr_misses::.cpu.data          120                       # number of overall MSHR misses
system.l2cache.overall_mshr_misses::.cpu.dcache.prefetcher           30                       # number of overall MSHR misses
system.l2cache.overall_mshr_misses::total          380                       # number of overall MSHR misses
system.l2cache.demand_mshr_miss_latency::.cpu.inst     13750400                       # number of demand (read+write) MSHR miss cycles
system.l2cache.demand_mshr_miss_latency::.cpu.data      7238800                       # number of demand (read+write) MSHR miss cycles
system.l2cache.demand_mshr_miss_latency::.cpu.dcache.prefetcher      1919969                       # number of demand (read+write) MSHR miss cycles
system.l2cache.demand_mshr_miss_latency::total     22909169                       # number of demand (read+write) MSHR miss cycles
system.l2cache.overall_mshr_miss_latency::.cpu.inst     13750400                       # number of overall MSHR miss cycles
system.l2cache.overall_mshr_miss_latency::.cpu.data      7238800                       # number of overall MSHR miss cycles
system.l2cache.overall_mshr_miss_latency::.cpu.dcache.prefetcher      1919969                       # number of overall MSHR miss cycles
system.l2cache.overall_mshr_miss_latency::total     22909169                       # number of overall MSHR miss cycles
system.l2cache.demand_mshr_miss_rate::.cpu.inst     0.504386                       # mshr miss rate for demand accesses
system.l2cache.demand_mshr_miss_rate::.cpu.data     0.517241                       # mshr miss rate for demand accesses
system.l2cache.demand_mshr_miss_rate::.cpu.dcache.prefetcher     0.937500                       # mshr miss rate for demand accesses
system.l2cache.demand_mshr_miss_rate::total     0.527778                       # mshr miss rate for demand accesses
system.l2cache.overall_mshr_miss_rate::.cpu.inst     0.504386                       # mshr miss rate for overall accesses
system.l2cache.overall_mshr_miss_rate::.cpu.data     0.517241                       # mshr miss rate for overall accesses
system.l2cache.overall_mshr_miss_rate::.cpu.dcache.prefetcher     0.937500                       # mshr miss rate for overall accesses
system.l2cache.overall_mshr_miss_rate::total     0.527778                       # mshr miss rate for overall accesses
system.l2cache.demand_avg_mshr_miss_latency::.cpu.inst 59784.347826                       # average overall mshr miss latency
system.l2cache.demand_avg_mshr_miss_latency::.cpu.data 60323.333333                       # average overall mshr miss latency
system.l2cache.demand_avg_mshr_miss_latency::.cpu.dcache.prefetcher 63998.966667                       # average overall mshr miss latency
system.l2cache.demand_avg_mshr_miss_latency::total 60287.286842                       # average overall mshr miss latency
system.l2cache.overall_avg_mshr_miss_latency::.cpu.inst 59784.347826                       # average overall mshr miss latency
system.l2cache.overall_avg_mshr_miss_latency::.cpu.data 60323.333333                       # average overall mshr miss latency
system.l2cache.overall_avg_mshr_miss_latency::.cpu.dcache.prefetcher 63998.966667                       # average overall mshr miss latency
system.l2cache.overall_avg_mshr_miss_latency::total 60287.286842                       # average overall mshr miss latency
system.l2cache.replacements                       388                       # number of replacements
system.l2cache.WritebackDirty_hits::.writebacks           76                       # number of WritebackDirty hits
system.l2cache.WritebackDirty_hits::total           76                       # number of WritebackDirty hits
system.l2cache.WritebackDirty_accesses::.writebacks           76                       # number of WritebackDirty accesses(hits+misses)
system.l2cache.WritebackDirty_accesses::total           76                       # number of WritebackDirty accesses(hits+misses)
system.l2cache.CleanEvict_mshr_misses::.writebacks           12                       # number of CleanEvict MSHR misses
system.l2cache.CleanEvict_mshr_misses::total           12                       # number of CleanEvict MSHR misses
system.l2cache.CleanEvict_mshr_miss_rate::.writebacks          inf                       # mshr miss rate for CleanEvict accesses
system.l2cache.CleanEvict_mshr_miss_rate::total          inf                       # mshr miss rate for CleanEvict accesses
system.l2cache.ReadExReq_hits::.cpu.data            3                       # number of ReadExReq hits
system.l2cache.ReadExReq_hits::total                3                       # number of ReadExReq hits
system.l2cache.ReadExReq_misses::.cpu.data            7                       # number of ReadExReq misses
system.l2cache.ReadExReq_misses::total              7                       # number of ReadExReq misses
system.l2cache.ReadExReq_miss_latency::.cpu.data       496800                       # number of ReadExReq miss cycles
system.l2cache.ReadExReq_miss_latency::total       496800                       # number of ReadExReq miss cycles
system.l2cache.ReadExReq_accesses::.cpu.data           10                       # number of ReadExReq accesses(hits+misses)
system.l2cache.ReadExReq_accesses::total           10                       # number of ReadExReq accesses(hits+misses)
system.l2cache.ReadExReq_miss_rate::.cpu.data     0.700000                       # miss rate for ReadExReq accesses
system.l2cache.ReadExReq_miss_rate::total     0.700000                       # miss rate for ReadExReq accesses
system.l2cache.ReadExReq_avg_miss_latency::.cpu.data 70971.428571                       # average ReadExReq miss latency
system.l2cache.ReadExReq_avg_miss_latency::total 70971.428571                       # average ReadExReq miss latency
system.l2cache.ReadExReq_mshr_misses::.cpu.data            7                       # number of ReadExReq MSHR misses
system.l2cache.ReadExReq_mshr_misses::total            7                       # number of ReadExReq MSHR misses
system.l2cache.ReadExReq_mshr_miss_latency::.cpu.data       440800                       # number of ReadExReq MSHR miss cycles
system.l2cache.ReadExReq_mshr_miss_latency::total       440800                       # number of ReadExReq MSHR miss cycles
system.l2cache.ReadExReq_mshr_miss_rate::.cpu.data     0.700000                       # mshr miss rate for ReadExReq accesses
system.l2cache.ReadExReq_mshr_miss_rate::total     0.700000                       # mshr miss rate for ReadExReq accesses
system.l2cache.ReadExReq_avg_mshr_miss_latency::.cpu.data 62971.428571                       # average ReadExReq mshr miss latency
system.l2cache.ReadExReq_avg_mshr_miss_latency::total 62971.428571                       # average ReadExReq mshr miss latency
system.l2cache.ReadSharedReq_hits::.cpu.inst          226                       # number of ReadSharedReq hits
system.l2cache.ReadSharedReq_hits::.cpu.data          109                       # number of ReadSharedReq hits
system.l2cache.ReadSharedReq_hits::.cpu.dcache.prefetcher            2                       # number of ReadSharedReq hits
system.l2cache.ReadSharedReq_hits::total          337                       # number of ReadSharedReq hits
system.l2cache.ReadSharedReq_misses::.cpu.inst          230                       # number of ReadSharedReq misses
system.l2cache.ReadSharedReq_misses::.cpu.data          113                       # number of ReadSharedReq misses
system.l2cache.ReadSharedReq_misses::.cpu.dcache.prefetcher           30                       # number of ReadSharedReq misses
system.l2cache.ReadSharedReq_misses::total          373                       # number of ReadSharedReq misses
system.l2cache.ReadSharedReq_miss_latency::.cpu.inst     15582400                       # number of ReadSharedReq miss cycles
system.l2cache.ReadSharedReq_miss_latency::.cpu.data      7702000                       # number of ReadSharedReq miss cycles
system.l2cache.ReadSharedReq_miss_latency::.cpu.dcache.prefetcher      2159969                       # number of ReadSharedReq miss cycles
system.l2cache.ReadSharedReq_miss_latency::total     25444369                       # number of ReadSharedReq miss cycles
system.l2cache.ReadSharedReq_accesses::.cpu.inst          456                       # number of ReadSharedReq accesses(hits+misses)
system.l2cache.ReadSharedReq_accesses::.cpu.data          222                       # number of ReadSharedReq accesses(hits+misses)
system.l2cache.ReadSharedReq_accesses::.cpu.dcache.prefetcher           32                       # number of ReadSharedReq accesses(hits+misses)
system.l2cache.ReadSharedReq_accesses::total          710                       # number of ReadSharedReq accesses(hits+misses)
system.l2cache.ReadSharedReq_miss_rate::.cpu.inst     0.504386                       # miss rate for ReadSharedReq accesses
system.l2cache.ReadSharedReq_miss_rate::.cpu.data     0.509009                       # miss rate for ReadSharedReq accesses
system.l2cache.ReadSharedReq_miss_rate::.cpu.dcache.prefetcher     0.937500                       # miss rate for ReadSharedReq accesses
system.l2cache.ReadSharedReq_miss_rate::total     0.525352                       # miss rate for ReadSharedReq accesses
system.l2cache.ReadSharedReq_avg_miss_latency::.cpu.inst 67749.565217                       # average ReadSharedReq miss latency
system.l2cache.ReadSharedReq_avg_miss_latency::.cpu.data 68159.292035                       # average ReadSharedReq miss latency
system.l2cache.ReadSharedReq_avg_miss_latency::.cpu.dcache.prefetcher 71998.966667                       # average ReadSharedReq miss latency
system.l2cache.ReadSharedReq_avg_miss_latency::total 68215.466488                       # average ReadSharedReq miss latency
system.l2cache.ReadSharedReq_mshr_misses::.cpu.inst          230                       # number of ReadSharedReq MSHR misses
system.l2cache.ReadSharedReq_mshr_misses::.cpu.data          113                       # number of ReadSharedReq MSHR misses
system.l2cache.ReadSharedReq_mshr_misses::.cpu.dcache.prefetcher           30                       # number of ReadSharedReq MSHR misses
system.l2cache.ReadSharedReq_mshr_misses::total          373                       # number of ReadSharedReq MSHR misses
system.l2cache.ReadSharedReq_mshr_miss_latency::.cpu.inst     13750400                       # number of ReadSharedReq MSHR miss cycles
system.l2cache.ReadSharedReq_mshr_miss_latency::.cpu.data      6798000                       # number of ReadSharedReq MSHR miss cycles
system.l2cache.ReadSharedReq_mshr_miss_latency::.cpu.dcache.prefetcher      1919969                       # number of ReadSharedReq MSHR miss cycles
system.l2cache.ReadSharedReq_mshr_miss_latency::total     22468369                       # number of ReadSharedReq MSHR miss cycles
system.l2cache.ReadSharedReq_mshr_miss_rate::.cpu.inst     0.504386                       # mshr miss rate for ReadSharedReq accesses
system.l2cache.ReadSharedReq_mshr_miss_rate::.cpu.data     0.509009                       # mshr miss rate for ReadSharedReq accesses
system.l2cache.ReadSharedReq_mshr_miss_rate::.cpu.dcache.prefetcher     0.937500                       # mshr miss rate for ReadSharedReq accesses
system.l2cache.ReadSharedReq_mshr_miss_rate::total     0.525352                       # mshr miss rate for ReadSharedReq accesses
system.l2cache.ReadSharedReq_avg_mshr_miss_latency::.cpu.inst 59784.347826                       # average ReadSharedReq mshr miss latency
system.l2cache.ReadSharedReq_avg_mshr_miss_latency::.cpu.data 60159.292035                       # average ReadSharedReq mshr miss latency
system.l2cache.ReadSharedReq_avg_mshr_miss_latency::.cpu.dcache.prefetcher 63998.966667                       # average ReadSharedReq mshr miss latency
system.l2cache.ReadSharedReq_avg_mshr_miss_latency::total 60236.914209                       # average ReadSharedReq mshr miss latency
system.l2cache.prefetcher.pwrStateResidencyTicks::UNDEFINED     27762000                       # Cumulative time (in ticks) in various power states
system.l2cache.tags.pwrStateResidencyTicks::UNDEFINED     27762000                       # Cumulative time (in ticks) in various power states
system.l2cache.tags.tagsinuse                    4096                       # Cycle average of tags in use
system.l2cache.tags.total_refs                  14039                       # Total number of references to valid blocks.
system.l2cache.tags.sampled_refs                 4484                       # Sample count of references to valid blocks.
system.l2cache.tags.avg_refs                 3.130910                       # Average number of references to valid blocks.
system.l2cache.tags.warmup_cycle                    0                       # Cycle when the warmup percentage was hit.
system.l2cache.tags.occ_blocks::.writebacks    43.033038                       # Average occupied blocks per requestor
system.l2cache.tags.occ_blocks::.cpu.inst  1149.813231                       # Average occupied blocks per requestor
system.l2cache.tags.occ_blocks::.cpu.data  1821.703709                       # Average occupied blocks per requestor
system.l2cache.tags.occ_blocks::.cpu.dcache.prefetcher   961.066549                       # Average occupied blocks per requestor
system.l2cache.tags.occ_blocks::.l2cache.prefetcher   120.383474                       # Average occupied blocks per requestor
system.l2cache.tags.occ_percent::.writebacks     0.010506                       # Average percentage of cache occupancy
system.l2cache.tags.occ_percent::.cpu.inst     0.280716                       # Average percentage of cache occupancy
system.l2cache.tags.occ_percent::.cpu.data     0.444752                       # Average percentage of cache occupancy
system.l2cache.tags.occ_percent::.cpu.dcache.prefetcher     0.234635                       # Average percentage of cache occupancy
system.l2cache.tags.occ_percent::.l2cache.prefetcher     0.029390                       # Average percentage of cache occupancy
system.l2cache.tags.occ_percent::total              1                       # Average percentage of cache occupancy
system.l2cache.tags.occ_task_id_blocks::1022         1015                       # Occupied blocks per task id
system.l2cache.tags.occ_task_id_blocks::1024         3081                       # Occupied blocks per task id
system.l2cache.tags.age_task_id_blocks_1022::0           10                       # Occupied blocks per task id
system.l2cache.tags.age_task_id_blocks_1022::1           21                       # Occupied blocks per task id
system.l2cache.tags.age_task_id_blocks_1022::2          950                       # Occupied blocks per task id
system.l2cache.tags.age_task_id_blocks_1022::3           34                       # Occupied blocks per task id
system.l2cache.tags.age_task_id_blocks_1024::0          171                       # Occupied blocks per task id
system.l2cache.tags.age_task_id_blocks_1024::1          186                       # Occupied blocks per task id
system.l2cache.tags.age_task_id_blocks_1024::2         2557                       # Occupied blocks per task id
system.l2cache.tags.age_task_id_blocks_1024::3          167                       # Occupied blocks per task id
system.l2cache.tags.occ_task_id_percent::1022     0.247803                       # Percentage of cache occupancy per task id
system.l2cache.tags.occ_task_id_percent::1024     0.752197                       # Percentage of cache occupancy per task id
system.l2cache.tags.tag_accesses                11884                       # Number of tag accesses
system.l2cache.tags.data_accesses               11884                       # Number of data accesses
system.mem_ctrl.pwrStateResidencyTicks::UNDEFINED     27762000                       # Cumulative time (in ticks) in various power states
system.mem_ctrl.bytes_read::.cpu.inst           14656                       # Number of bytes read from this memory
system.mem_ctrl.bytes_read::.cpu.data            7680                       # Number of bytes read from this memory
system.mem_ctrl.bytes_read::.cpu.dcache.prefetcher         1920                       # Number of bytes read from this memory
system.mem_ctrl.bytes_read::total               24256                       # Number of bytes read from this memory
system.mem_ctrl.bytes_inst_read::.cpu.inst        14656                       # Number of instructions bytes read from this memory
system.mem_ctrl.bytes_inst_read::total          14656                       # Number of instructions bytes read from this memory
system.mem_ctrl.bytes_written::.writebacks         1152                       # Number of bytes written to this memory
system.mem_ctrl.bytes_written::total             1152                       # Number of bytes written to this memory
system.mem_ctrl.num_reads::.cpu.inst              229                       # Number of read requests responded to by this memory
system.mem_ctrl.num_reads::.cpu.data              120                       # Number of read requests responded to by this memory
system.mem_ctrl.num_reads::.cpu.dcache.prefetcher           30                       # Number of read requests responded to by this memory
system.mem_ctrl.num_reads::total                  379                       # Number of read requests responded to by this memory
system.mem_ctrl.num_writes::.writebacks            18                       # Number of write requests responded to by this memory
system.mem_ctrl.num_writes::total                  18                       # Number of write requests responded to by this memory
system.mem_ctrl.bw_read::.cpu.inst          527915856                       # Total read bandwidth from this memory (bytes/s)
system.mem_ctrl.bw_read::.cpu.data          276637130                       # Total read bandwidth from this memory (bytes/s)
system.mem_ctrl.bw_read::.cpu.dcache.prefetcher     69159282                       # Total read bandwidth from this memory (bytes/s)
system.mem_ctrl.bw_read::total              873712269                       # Total read bandwidth from this memory (bytes/s)
system.mem_ctrl.bw_inst_read::.cpu.inst     527915856                       # Instruction read bandwidth from this memory (bytes/s)
system.mem_ctrl.bw_inst_read::total         527915856                       # Instruction read bandwidth from this memory (bytes/s)
system.mem_ctrl.bw_write::.writebacks        41495569                       # Write bandwidth from this memory (bytes/s)
system.mem_ctrl.bw_write::total              41495569                       # Write bandwidth from this memory (bytes/s)
system.mem_ctrl.bw_total::.writebacks        41495569                       # Total bandwidth to/from this memory (bytes/s)
system.mem_ctrl.bw_total::.cpu.inst         527915856                       # Total bandwidth to/from this memory (bytes/s)
system.mem_ctrl.bw_total::.cpu.data         276637130                       # Total bandwidth to/from this memory (bytes/s)
system.mem_ctrl.bw_total::.cpu.dcache.prefetcher     69159282                       # Total bandwidth to/from this memory (bytes/s)
system.mem_ctrl.bw_total::total             915207838                       # Total bandwidth to/from this memory (bytes/s)

---------- End Simulation Statistics   ----------
