
---------- Begin Simulation Statistics ----------
final_tick                                 1121663200                       # Number of ticks from beginning of simulation (restored from checkpoints and never reset)
host_inst_rate                                 147072                       # Simulator instruction rate (inst/s)
host_mem_usage                                4406848                       # Number of bytes of host memory used
host_op_rate                                   258261                       # Simulator op (including micro ops) rate (op/s)
host_seconds                                    14.69                       # Real time elapsed on the host
host_tick_rate                               76366944                       # Simulator tick rate (ticks/s)
sim_freq                                 1000000000000                       # Frequency of simulated ticks
sim_insts                                     2160149                       # Number of instructions simulated
sim_ops                                       3793282                       # Number of ops (including micro ops) simulated
sim_seconds                                  0.001122                       # Number of seconds simulated
sim_ticks                                  1121663200                       # Number of ticks simulated
system.cpu.branchPred.BTBCorrect                    0                       # Number of correct BTB predictions (this stat may not work properly.
system.cpu.branchPred.BTBHitPct              0.000000                       # BTB Hit Percentage
system.cpu.branchPred.BTBHits                       0                       # Number of BTB hits
system.cpu.branchPred.BTBLookups               448044                       # Number of BTB lookups
system.cpu.branchPred.RASInCorrect                  8                       # Number of incorrect RAS predictions.
system.cpu.branchPred.condIncorrect             24237                       # Number of conditional branches incorrect
system.cpu.branchPred.condPredicted            478460                       # Number of conditional branches predicted
system.cpu.branchPred.indirectHits             244849                       # Number of indirect target hits.
system.cpu.branchPred.indirectLookups          448044                       # Number of indirect predictor lookups.
system.cpu.branchPred.indirectMisses           203195                       # Number of indirect misses.
system.cpu.branchPred.lookups                  507745                       # Number of BP lookups
system.cpu.branchPred.usedRAS                   12856                       # Number of times the RAS was used to get a target.
system.cpu.branchPredindirectMispredicted        12158                       # Number of mispredicted indirect branches.
system.cpu.cc_regfile_reads                   2478952                       # number of cc regfile reads
system.cpu.cc_regfile_writes                  1989315                       # number of cc regfile writes
system.cpu.commit.amos                              0                       # Number of atomic instructions committed
system.cpu.commit.branchMispredicts             24353                       # The number of times a branch was mispredicted
system.cpu.commit.branches                     363042                       # Number of branches committed
system.cpu.commit.bw_lim_events                632647                       # number cycles where commit BW limit reached
system.cpu.commit.commitNonSpecStalls             760                       # The number of times commit has been forced to stall to communicate backwards
system.cpu.commit.commitSquashedInsts          891322                       # The number of squashed insts skipped by commit
system.cpu.commit.committedInsts              2160149                       # Number of instructions committed
system.cpu.commit.committedOps                3793282                       # Number of ops (including micro ops) committed
system.cpu.commit.committed_per_cycle::samples      2396507                       # Number of insts commited each cycle
system.cpu.commit.committed_per_cycle::mean     1.582838                       # Number of insts commited each cycle
system.cpu.commit.committed_per_cycle::stdev     1.729978                       # Number of insts commited each cycle
system.cpu.commit.committed_per_cycle::underflows            0      0.00%      0.00% # Number of insts commited each cycle
system.cpu.commit.committed_per_cycle::0      1158580     48.34%     48.34% # Number of insts commited each cycle
system.cpu.commit.committed_per_cycle::1       186164      7.77%     56.11% # Number of insts commited each cycle
system.cpu.commit.committed_per_cycle::2       180818      7.55%     63.66% # Number of insts commited each cycle
system.cpu.commit.committed_per_cycle::3       238298      9.94%     73.60% # Number of insts commited each cycle
system.cpu.commit.committed_per_cycle::4       632647     26.40%    100.00% # Number of insts commited each cycle
system.cpu.commit.committed_per_cycle::overflows            0      0.00%    100.00% # Number of insts commited each cycle
system.cpu.commit.committed_per_cycle::min_value            0                       # Number of insts commited each cycle
system.cpu.commit.committed_per_cycle::max_value            4                       # Number of insts commited each cycle
system.cpu.commit.committed_per_cycle::total      2396507                       # Number of insts commited each cycle
system.cpu.commit.fp_insts                      87327                       # Number of committed floating point instructions.
system.cpu.commit.function_calls                11003                       # Number of function calls committed.
system.cpu.commit.int_insts                   3727513                       # Number of committed integer instructions.
system.cpu.commit.loads                        517433                       # Number of loads committed
system.cpu.commit.membars                           1                       # Number of memory barriers committed
system.cpu.commit.op_class_0::No_OpClass        21545      0.57%      0.57% # Class of committed instruction
system.cpu.commit.op_class_0::IntAlu          2971850     78.35%     78.91% # Class of committed instruction
system.cpu.commit.op_class_0::IntMult            1861      0.05%     78.96% # Class of committed instruction
system.cpu.commit.op_class_0::IntDiv            37658      0.99%     79.95% # Class of committed instruction
system.cpu.commit.op_class_0::FloatAdd           3405      0.09%     80.04% # Class of committed instruction
system.cpu.commit.op_class_0::FloatCmp              0      0.00%     80.04% # Class of committed instruction
system.cpu.commit.op_class_0::FloatCvt           1248      0.03%     80.08% # Class of committed instruction
system.cpu.commit.op_class_0::FloatMult             0      0.00%     80.08% # Class of committed instruction
system.cpu.commit.op_class_0::FloatMultAcc            0      0.00%     80.08% # Class of committed instruction
system.cpu.commit.op_class_0::FloatDiv              0      0.00%     80.08% # Class of committed instruction
system.cpu.commit.op_class_0::FloatMisc             0      0.00%     80.08% # Class of committed instruction
system.cpu.commit.op_class_0::FloatSqrt             0      0.00%     80.08% # Class of committed instruction
system.cpu.commit.op_class_0::SimdAdd            6270      0.17%     80.24% # Class of committed instruction
system.cpu.commit.op_class_0::SimdAddAcc            0      0.00%     80.24% # Class of committed instruction
system.cpu.commit.op_class_0::SimdAlu           13412      0.35%     80.60% # Class of committed instruction
system.cpu.commit.op_class_0::SimdCmp               0      0.00%     80.60% # Class of committed instruction
system.cpu.commit.op_class_0::SimdCvt           14302      0.38%     80.97% # Class of committed instruction
system.cpu.commit.op_class_0::SimdMisc          11267      0.30%     81.27% # Class of committed instruction
system.cpu.commit.op_class_0::SimdMult              0      0.00%     81.27% # Class of committed instruction
system.cpu.commit.op_class_0::SimdMultAcc            0      0.00%     81.27% # Class of committed instruction
system.cpu.commit.op_class_0::SimdShift          1316      0.03%     81.31% # Class of committed instruction
system.cpu.commit.op_class_0::SimdShiftAcc            0      0.00%     81.31% # Class of committed instruction
system.cpu.commit.op_class_0::SimdDiv               0      0.00%     81.31% # Class of committed instruction
system.cpu.commit.op_class_0::SimdSqrt              0      0.00%     81.31% # Class of committed instruction
system.cpu.commit.op_class_0::SimdFloatAdd            0      0.00%     81.31% # Class of committed instruction
system.cpu.commit.op_class_0::SimdFloatAlu            0      0.00%     81.31% # Class of committed instruction
system.cpu.commit.op_class_0::SimdFloatCmp            0      0.00%     81.31% # Class of committed instruction
system.cpu.commit.op_class_0::SimdFloatCvt            0      0.00%     81.31% # Class of committed instruction
system.cpu.commit.op_class_0::SimdFloatDiv            0      0.00%     81.31% # Class of committed instruction
system.cpu.commit.op_class_0::SimdFloatMisc            0      0.00%     81.31% # Class of committed instruction
system.cpu.commit.op_class_0::SimdFloatMult            0      0.00%     81.31% # Class of committed instruction
system.cpu.commit.op_class_0::SimdFloatMultAcc            0      0.00%     81.31% # Class of committed instruction
system.cpu.commit.op_class_0::SimdFloatSqrt            0      0.00%     81.31% # Class of committed instruction
system.cpu.commit.op_class_0::SimdReduceAdd            0      0.00%     81.31% # Class of committed instruction
system.cpu.commit.op_class_0::SimdReduceAlu            0      0.00%     81.31% # Class of committed instruction
system.cpu.commit.op_class_0::SimdReduceCmp            0      0.00%     81.31% # Class of committed instruction
system.cpu.commit.op_class_0::SimdFloatReduceAdd            0      0.00%     81.31% # Class of committed instruction
system.cpu.commit.op_class_0::SimdFloatReduceCmp            0      0.00%     81.31% # Class of committed instruction
system.cpu.commit.op_class_0::SimdAes               0      0.00%     81.31% # Class of committed instruction
system.cpu.commit.op_class_0::SimdAesMix            0      0.00%     81.31% # Class of committed instruction
system.cpu.commit.op_class_0::SimdSha1Hash            0      0.00%     81.31% # Class of committed instruction
system.cpu.commit.op_class_0::SimdSha1Hash2            0      0.00%     81.31% # Class of committed instruction
system.cpu.commit.op_class_0::SimdSha256Hash            0      0.00%     81.31% # Class of committed instruction
system.cpu.commit.op_class_0::SimdSha256Hash2            0      0.00%     81.31% # Class of committed instruction
system.cpu.commit.op_class_0::SimdShaSigma2            0      0.00%     81.31% # Class of committed instruction
system.cpu.commit.op_class_0::SimdShaSigma3            0      0.00%     81.31% # Class of committed instruction
system.cpu.commit.op_class_0::SimdPredAlu            0      0.00%     81.31% # Class of committed instruction
system.cpu.commit.op_class_0::MemRead          496515     13.09%     94.39% # Class of committed instruction
system.cpu.commit.op_class_0::MemWrite         178936      4.72%     99.11% # Class of committed instruction
system.cpu.commit.op_class_0::FloatMemRead        20918      0.55%     99.66% # Class of committed instruction
system.cpu.commit.op_class_0::FloatMemWrite        12779      0.34%    100.00% # Class of committed instruction
system.cpu.commit.op_class_0::IprAccess             0      0.00%    100.00% # Class of committed instruction
system.cpu.commit.op_class_0::InstPrefetch            0      0.00%    100.00% # Class of committed instruction
system.cpu.commit.op_class_0::total           3793282                       # Class of committed instruction
system.cpu.commit.refs                         709148                       # Number of memory references committed
system.cpu.commit.swp_count                         0                       # Number of s/w prefetches committed
system.cpu.commit.vec_insts                         0                       # Number of committed Vector instructions.
system.cpu.committedInsts                     2160149                       # Number of Instructions Simulated
system.cpu.committedOps                       3793282                       # Number of Ops (including micro ops) Simulated
system.cpu.cpi                               1.298132                       # CPI: Cycles Per Instruction
system.cpu.cpi_total                         1.298132                       # CPI: Total CPI of All Threads
system.cpu.dcache.prefetcher.num_hwpf_issued         8028                       # number of hwpf issued
system.cpu.dcache.prefetcher.pfBufferHit        33768                       # number of redundant prefetches already in prefetch queue
system.cpu.dcache.prefetcher.pfIdentified        48771                       # number of prefetch candidates identified
system.cpu.dcache.prefetcher.pfInCache              0                       # number of redundant prefetches already in cache/mshr dropped
system.cpu.dcache.prefetcher.pfRemovedFull            0                       # number of prefetches dropped due to prefetch queue size
system.cpu.dcache.prefetcher.pfSpanPage          4513                       # number of prefetches that crossed the page
system.cpu.decode.BlockedCycles               1021071                       # Number of cycles decode is blocked
system.cpu.decode.DecodedInsts                4901173                       # Number of instructions handled by decode
system.cpu.decode.IdleCycles                   309417                       # Number of cycles decode is idle
system.cpu.decode.RunCycles                   1195741                       # Number of cycles decode is running
system.cpu.decode.SquashCycles                  24421                       # Number of cycles decode is squashing
system.cpu.decode.UnblockCycles                 88983                       # Number of cycles decode is unblocking
system.cpu.dtb.rdAccesses                      601128                       # TLB accesses on read requests
system.cpu.dtb.rdMisses                          2039                       # TLB misses on read requests
system.cpu.dtb.wrAccesses                      211118                       # TLB accesses on write requests
system.cpu.dtb.wrMisses                           154                       # TLB misses on write requests
system.cpu.fetch.Branches                      507745                       # Number of branches that fetch encountered
system.cpu.fetch.CacheLines                    253494                       # Number of cache lines fetched
system.cpu.fetch.Cycles                       2269593                       # Number of cycles fetch has run and was not squashing or blocked
system.cpu.fetch.IcacheSquashes                  4642                       # Number of outstanding Icache misses that were squashed
system.cpu.fetch.Insts                        2930883                       # Number of instructions fetch has processed
system.cpu.fetch.MiscStallCycles                  143                       # Number of cycles fetch has spent waiting on interrupts, or bad addresses, or out of MSHRs
system.cpu.fetch.PendingQuiesceStallCycles            6                       # Number of stall cycles due to pending quiesce instructions
system.cpu.fetch.PendingTrapStallCycles           781                       # Number of stall cycles due to pending traps
system.cpu.fetch.SquashCycles                   48842                       # Number of cycles fetch has spent squashing
system.cpu.fetch.branchRate                  0.181069                       # Number of branch fetches per cycle
system.cpu.fetch.icacheStallCycles             344689                       # Number of cycles fetch is stalled on an Icache miss
system.cpu.fetch.predictedBranches             257705                       # Number of branches that fetch has predicted taken
system.cpu.fetch.rate                        1.045191                       # Number of inst fetches per cycle
system.cpu.fetch.rateDist::samples            2639633                       # Number of instructions fetched each cycle (Total)
system.cpu.fetch.rateDist::mean              1.961928                       # Number of instructions fetched each cycle (Total)
system.cpu.fetch.rateDist::stdev             1.930319                       # Number of instructions fetched each cycle (Total)
system.cpu.fetch.rateDist::underflows               0      0.00%      0.00% # Number of instructions fetched each cycle (Total)
system.cpu.fetch.rateDist::0                  1236202     46.83%     46.83% # Number of instructions fetched each cycle (Total)
system.cpu.fetch.rateDist::1                    76811      2.91%     49.74% # Number of instructions fetched each cycle (Total)
system.cpu.fetch.rateDist::2                    62455      2.37%     52.11% # Number of instructions fetched each cycle (Total)
system.cpu.fetch.rateDist::3                    79611      3.02%     55.12% # Number of instructions fetched each cycle (Total)
system.cpu.fetch.rateDist::4                  1184554     44.88%    100.00% # Number of instructions fetched each cycle (Total)
system.cpu.fetch.rateDist::overflows                0      0.00%    100.00% # Number of instructions fetched each cycle (Total)
system.cpu.fetch.rateDist::min_value                0                       # Number of instructions fetched each cycle (Total)
system.cpu.fetch.rateDist::max_value                4                       # Number of instructions fetched each cycle (Total)
system.cpu.fetch.rateDist::total              2639633                       # Number of instructions fetched each cycle (Total)
system.cpu.fp_regfile_reads                    145435                       # number of floating regfile reads
system.cpu.fp_regfile_writes                    79540                       # number of floating regfile writes
system.cpu.fuPool.fu_ticks_busy::IntALU(0)    226914000                       # Total ticks fu was busy
system.cpu.fuPool.fu_ticks_busy::IntALU(1)    226914000                       # Total ticks fu was busy
system.cpu.fuPool.fu_ticks_busy::IntALU(2)    226914000                       # Total ticks fu was busy
system.cpu.fuPool.fu_ticks_busy::IntALU(3)    226914000                       # Total ticks fu was busy
system.cpu.fuPool.fu_ticks_busy::IntALU(4)    226913600                       # Total ticks fu was busy
system.cpu.fuPool.fu_ticks_busy::IntALU(5)    226913600                       # Total ticks fu was busy
system.cpu.fuPool.fu_ticks_busy::IntMultDiv(0)      8668800                       # Total ticks fu was busy
system.cpu.fuPool.fu_ticks_busy::IntMultDiv(1)      8668800                       # Total ticks fu was busy
system.cpu.fuPool.fu_ticks_busy::FP_ALU(0)       637600                       # Total ticks fu was busy
system.cpu.fuPool.fu_ticks_busy::FP_ALU(1)       637600                       # Total ticks fu was busy
system.cpu.fuPool.fu_ticks_busy::FP_ALU(2)       637200                       # Total ticks fu was busy
system.cpu.fuPool.fu_ticks_busy::FP_ALU(3)       637200                       # Total ticks fu was busy
system.cpu.fuPool.fu_ticks_busy::FP_MultDiv(0)            0                       # Total ticks fu was busy
system.cpu.fuPool.fu_ticks_busy::FP_MultDiv(1)            0                       # Total ticks fu was busy
system.cpu.fuPool.fu_ticks_busy::SIMD_Unit(0)      5523200                       # Total ticks fu was busy
system.cpu.fuPool.fu_ticks_busy::SIMD_Unit(1)      5607200                       # Total ticks fu was busy
system.cpu.fuPool.fu_ticks_busy::SIMD_Unit(2)      5427200                       # Total ticks fu was busy
system.cpu.fuPool.fu_ticks_busy::SIMD_Unit(3)      5546000                       # Total ticks fu was busy
system.cpu.fuPool.fu_ticks_busy::PredALU(0)            0                       # Total ticks fu was busy
system.cpu.fuPool.fu_ticks_busy::RdWrPort(0)     82683600                       # Total ticks fu was busy
system.cpu.fuPool.fu_ticks_busy::RdWrPort(1)     82655200                       # Total ticks fu was busy
system.cpu.fuPool.fu_ticks_busy::RdWrPort(2)     82704400                       # Total ticks fu was busy
system.cpu.fuPool.fu_ticks_busy::RdWrPort(3)     82698400                       # Total ticks fu was busy
system.cpu.fuPool.fu_ticks_busy::IprPort(0)            0                       # Total ticks fu was busy
system.cpu.fuPool.fu_ticks_busy::total     1734215600                       # Total ticks fu was busy
system.cpu.icache.prefetcher.num_hwpf_issued            0                       # number of hwpf issued
system.cpu.icache.prefetcher.pfBufferHit            0                       # number of redundant prefetches already in prefetch queue
system.cpu.icache.prefetcher.pfIdentified            0                       # number of prefetch candidates identified
system.cpu.icache.prefetcher.pfInCache              0                       # number of redundant prefetches already in cache/mshr dropped
system.cpu.icache.prefetcher.pfRemovedFull            0                       # number of prefetches dropped due to prefetch queue size
system.cpu.icache.prefetcher.pfSpanPage             0                       # number of prefetches that crossed the page
system.cpu.idleCycles                          164526                       # Total number of cycles that the CPU has spent unscheduled due to idling
system.cpu.iew.branchMispredicts                28751                       # Number of branch mispredicts detected at execute
system.cpu.iew.exec_branches                   393460                       # Number of branches executed
system.cpu.iew.exec_nop                             0                       # number of nop insts executed
system.cpu.iew.exec_rate                     1.543787                       # Inst execution rate
system.cpu.iew.exec_refs                       813872                       # number of memory reference insts executed
system.cpu.iew.exec_stores                     211105                       # Number of stores executed
system.cpu.iew.exec_swp                             0                       # number of swp insts executed
system.cpu.iew.iewBlockCycles                  690916                       # Number of cycles IEW is blocking
system.cpu.iew.iewDispLoadInsts                633311                       # Number of dispatched load instructions
system.cpu.iew.iewDispNonSpecInsts                957                       # Number of dispatched non-speculative instructions
system.cpu.iew.iewDispSquashedInsts               584                       # Number of squashed instructions skipped by dispatch
system.cpu.iew.iewDispStoreInsts               221389                       # Number of dispatched store instructions
system.cpu.iew.iewDispatchedInsts             4684566                       # Number of instructions dispatched to IQ
system.cpu.iew.iewExecLoadInsts                602767                       # Number of load instructions executed
system.cpu.iew.iewExecSquashedInsts             34523                       # Number of squashed instructions skipped in execute
system.cpu.iew.iewExecutedInsts               4329025                       # Number of executed instructions
system.cpu.iew.iewIQFullEvents                   3333                       # Number of times the IQ has become full, causing a stall
system.cpu.iew.iewIdleCycles                        0                       # Number of cycles IEW is idle
system.cpu.iew.iewLSQFullEvents                  8359                       # Number of times the LSQ has become full, causing a stall
system.cpu.iew.iewSquashCycles                  24421                       # Number of cycles IEW is squashing
system.cpu.iew.iewUnblockCycles                 14670                       # Number of cycles IEW is unblocking
system.cpu.iew.lsq.thread0.blockedLoads             0                       # Number of blocked loads due to partial load-store forwarding
system.cpu.iew.lsq.thread0.cacheBlocked           634                       # Number of times an access to memory failed due to the cache being blocked
system.cpu.iew.lsq.thread0.forwLoads            42797                       # Number of loads that had data forwarded from stores
system.cpu.iew.lsq.thread0.ignoredResponses          228                       # Number of memory responses ignored because the instruction is squashed
system.cpu.iew.lsq.thread0.invAddrLoads             0                       # Number of loads ignored due to an invalid address
system.cpu.iew.lsq.thread0.invAddrSwpfs             0                       # Number of software prefetches ignored due to an invalid address
system.cpu.iew.lsq.thread0.memOrderViolation           83                       # Number of memory ordering violations
system.cpu.iew.lsq.thread0.rescheduledLoads            3                       # Number of loads that were rescheduled
system.cpu.iew.lsq.thread0.squashedLoads       115876                       # Number of loads squashed
system.cpu.iew.lsq.thread0.squashedStores        29673                       # Number of stores squashed
system.cpu.iew.memOrderViolationEvents             83                       # Number of memory order violations
system.cpu.iew.predictedNotTakenIncorrect        20732                       # Number of branches that were predicted not taken incorrectly
system.cpu.iew.predictedTakenIncorrect           8019                       # Number of branches that were predicted taken incorrectly
system.cpu.iew.wb_consumers                   6025743                       # num instructions consuming a value
system.cpu.iew.wb_count                       4306921                       # cumulative count of insts written-back
system.cpu.iew.wb_fanout                     0.568246                       # average fanout of values written-back
system.cpu.iew.wb_producers                   3424104                       # num instructions producing a value
system.cpu.iew.wb_rate                       1.535905                       # insts written-back per cycle
system.cpu.iew.wb_sent                        4313902                       # cumulative count of insts sent to commit
system.cpu.int_regfile_reads                  6691726                       # number of integer regfile reads
system.cpu.int_regfile_writes                 3698485                       # number of integer regfile writes
system.cpu.ipc                               0.770338                       # IPC: Instructions Per Cycle
system.cpu.ipc_total                         0.770338                       # IPC: Total IPC of All Threads
system.cpu.iq.FU_type_0::No_OpClass             28009      0.64%      0.64% # Type of FU issued
system.cpu.iq.FU_type_0::IntAlu               3403710     78.00%     78.65% # Type of FU issued
system.cpu.iq.FU_type_0::IntMult                 1900      0.04%     78.69% # Type of FU issued
system.cpu.iq.FU_type_0::IntDiv                 41444      0.95%     79.64% # Type of FU issued
system.cpu.iq.FU_type_0::FloatAdd                5062      0.12%     79.75% # Type of FU issued
system.cpu.iq.FU_type_0::FloatCmp                   0      0.00%     79.75% # Type of FU issued
system.cpu.iq.FU_type_0::FloatCvt                1312      0.03%     79.78% # Type of FU issued
system.cpu.iq.FU_type_0::FloatMult                  0      0.00%     79.78% # Type of FU issued
system.cpu.iq.FU_type_0::FloatMultAcc               0      0.00%     79.78% # Type of FU issued
system.cpu.iq.FU_type_0::FloatDiv                   0      0.00%     79.78% # Type of FU issued
system.cpu.iq.FU_type_0::FloatMisc                  0      0.00%     79.78% # Type of FU issued
system.cpu.iq.FU_type_0::FloatSqrt                  0      0.00%     79.78% # Type of FU issued
system.cpu.iq.FU_type_0::SimdAdd                 7041      0.16%     79.95% # Type of FU issued
system.cpu.iq.FU_type_0::SimdAddAcc                 0      0.00%     79.95% # Type of FU issued
system.cpu.iq.FU_type_0::SimdAlu                17448      0.40%     80.35% # Type of FU issued
system.cpu.iq.FU_type_0::SimdCmp                    0      0.00%     80.35% # Type of FU issued
system.cpu.iq.FU_type_0::SimdCvt                16333      0.37%     80.72% # Type of FU issued
system.cpu.iq.FU_type_0::SimdMisc               11973      0.27%     80.99% # Type of FU issued
system.cpu.iq.FU_type_0::SimdMult                   0      0.00%     80.99% # Type of FU issued
system.cpu.iq.FU_type_0::SimdMultAcc                0      0.00%     80.99% # Type of FU issued
system.cpu.iq.FU_type_0::SimdShift               2464      0.06%     81.05% # Type of FU issued
system.cpu.iq.FU_type_0::SimdShiftAcc               0      0.00%     81.05% # Type of FU issued
system.cpu.iq.FU_type_0::SimdDiv                    0      0.00%     81.05% # Type of FU issued
system.cpu.iq.FU_type_0::SimdSqrt                   0      0.00%     81.05% # Type of FU issued
system.cpu.iq.FU_type_0::SimdFloatAdd               0      0.00%     81.05% # Type of FU issued
system.cpu.iq.FU_type_0::SimdFloatAlu               0      0.00%     81.05% # Type of FU issued
system.cpu.iq.FU_type_0::SimdFloatCmp               0      0.00%     81.05% # Type of FU issued
system.cpu.iq.FU_type_0::SimdFloatCvt               0      0.00%     81.05% # Type of FU issued
system.cpu.iq.FU_type_0::SimdFloatDiv               0      0.00%     81.05% # Type of FU issued
system.cpu.iq.FU_type_0::SimdFloatMisc              0      0.00%     81.05% # Type of FU issued
system.cpu.iq.FU_type_0::SimdFloatMult              0      0.00%     81.05% # Type of FU issued
system.cpu.iq.FU_type_0::SimdFloatMultAcc            0      0.00%     81.05% # Type of FU issued
system.cpu.iq.FU_type_0::SimdFloatSqrt              0      0.00%     81.05% # Type of FU issued
system.cpu.iq.FU_type_0::SimdReduceAdd              0      0.00%     81.05% # Type of FU issued
system.cpu.iq.FU_type_0::SimdReduceAlu              0      0.00%     81.05% # Type of FU issued
system.cpu.iq.FU_type_0::SimdReduceCmp              0      0.00%     81.05% # Type of FU issued
system.cpu.iq.FU_type_0::SimdFloatReduceAdd            0      0.00%     81.05% # Type of FU issued
system.cpu.iq.FU_type_0::SimdFloatReduceCmp            0      0.00%     81.05% # Type of FU issued
system.cpu.iq.FU_type_0::SimdAes                    0      0.00%     81.05% # Type of FU issued
system.cpu.iq.FU_type_0::SimdAesMix                 0      0.00%     81.05% # Type of FU issued
system.cpu.iq.FU_type_0::SimdSha1Hash               0      0.00%     81.05% # Type of FU issued
system.cpu.iq.FU_type_0::SimdSha1Hash2              0      0.00%     81.05% # Type of FU issued
system.cpu.iq.FU_type_0::SimdSha256Hash             0      0.00%     81.05% # Type of FU issued
system.cpu.iq.FU_type_0::SimdSha256Hash2            0      0.00%     81.05% # Type of FU issued
system.cpu.iq.FU_type_0::SimdShaSigma2              0      0.00%     81.05% # Type of FU issued
system.cpu.iq.FU_type_0::SimdShaSigma3              0      0.00%     81.05% # Type of FU issued
system.cpu.iq.FU_type_0::SimdPredAlu                0      0.00%     81.05% # Type of FU issued
system.cpu.iq.FU_type_0::MemRead               585667     13.42%     94.47% # Type of FU issued
system.cpu.iq.FU_type_0::MemWrite              199511      4.57%     99.04% # Type of FU issued
system.cpu.iq.FU_type_0::FloatMemRead           27518      0.63%     99.68% # Type of FU issued
system.cpu.iq.FU_type_0::FloatMemWrite          14160      0.32%    100.00% # Type of FU issued
system.cpu.iq.FU_type_0::IprAccess                  0      0.00%    100.00% # Type of FU issued
system.cpu.iq.FU_type_0::InstPrefetch               0      0.00%    100.00% # Type of FU issued
system.cpu.iq.FU_type_0::total                4363552                       # Type of FU issued
system.cpu.iq.fp_alu_accesses                  105924                       # Number of floating point alu accesses
system.cpu.iq.fp_inst_queue_reads              213302                       # Number of floating instruction queue reads
system.cpu.iq.fp_inst_queue_wakeup_accesses       102200                       # Number of floating instruction queue wakeup accesses
system.cpu.iq.fp_inst_queue_writes             151483                       # Number of floating instruction queue writes
system.cpu.iq.fu_busy_cnt                           0                       # FU busy when requested
system.cpu.iq.fu_busy_rate                          0                       # FU busy rate (busy events/executed inst)
system.cpu.iq.fu_full::No_OpClass                   0                       # attempts to use FU when none available
system.cpu.iq.fu_full::IntAlu                       0                       # attempts to use FU when none available
system.cpu.iq.fu_full::IntMult                      0                       # attempts to use FU when none available
system.cpu.iq.fu_full::IntDiv                       0                       # attempts to use FU when none available
system.cpu.iq.fu_full::FloatAdd                     0                       # attempts to use FU when none available
system.cpu.iq.fu_full::FloatCmp                     0                       # attempts to use FU when none available
system.cpu.iq.fu_full::FloatCvt                     0                       # attempts to use FU when none available
system.cpu.iq.fu_full::FloatMult                    0                       # attempts to use FU when none available
system.cpu.iq.fu_full::FloatMultAcc                 0                       # attempts to use FU when none available
system.cpu.iq.fu_full::FloatDiv                     0                       # attempts to use FU when none available
system.cpu.iq.fu_full::FloatMisc                    0                       # attempts to use FU when none available
system.cpu.iq.fu_full::FloatSqrt                    0                       # attempts to use FU when none available
system.cpu.iq.fu_full::SimdAdd                      0                       # attempts to use FU when none available
system.cpu.iq.fu_full::SimdAddAcc                   0                       # attempts to use FU when none available
system.cpu.iq.fu_full::SimdAlu                      0                       # attempts to use FU when none available
system.cpu.iq.fu_full::SimdCmp                      0                       # attempts to use FU when none available
system.cpu.iq.fu_full::SimdCvt                      0                       # attempts to use FU when none available
system.cpu.iq.fu_full::SimdMisc                     0                       # attempts to use FU when none available
system.cpu.iq.fu_full::SimdMult                     0                       # attempts to use FU when none available
system.cpu.iq.fu_full::SimdMultAcc                  0                       # attempts to use FU when none available
system.cpu.iq.fu_full::SimdShift                    0                       # attempts to use FU when none available
system.cpu.iq.fu_full::SimdShiftAcc                 0                       # attempts to use FU when none available
system.cpu.iq.fu_full::SimdDiv                      0                       # attempts to use FU when none available
system.cpu.iq.fu_full::SimdSqrt                     0                       # attempts to use FU when none available
system.cpu.iq.fu_full::SimdFloatAdd                 0                       # attempts to use FU when none available
system.cpu.iq.fu_full::SimdFloatAlu                 0                       # attempts to use FU when none available
system.cpu.iq.fu_full::SimdFloatCmp                 0                       # attempts to use FU when none available
system.cpu.iq.fu_full::SimdFloatCvt                 0                       # attempts to use FU when none available
system.cpu.iq.fu_full::SimdFloatDiv                 0                       # attempts to use FU when none available
system.cpu.iq.fu_full::SimdFloatMisc                0                       # attempts to use FU when none available
system.cpu.iq.fu_full::SimdFloatMult                0                       # attempts to use FU when none available
system.cpu.iq.fu_full::SimdFloatMultAcc             0                       # attempts to use FU when none available
system.cpu.iq.fu_full::SimdFloatSqrt                0                       # attempts to use FU when none available
system.cpu.iq.fu_full::SimdReduceAdd                0                       # attempts to use FU when none available
system.cpu.iq.fu_full::SimdReduceAlu                0                       # attempts to use FU when none available
system.cpu.iq.fu_full::SimdReduceCmp                0                       # attempts to use FU when none available
system.cpu.iq.fu_full::SimdFloatReduceAdd            0                       # attempts to use FU when none available
system.cpu.iq.fu_full::SimdFloatReduceCmp            0                       # attempts to use FU when none available
system.cpu.iq.fu_full::SimdAes                      0                       # attempts to use FU when none available
system.cpu.iq.fu_full::SimdAesMix                   0                       # attempts to use FU when none available
system.cpu.iq.fu_full::SimdSha1Hash                 0                       # attempts to use FU when none available
system.cpu.iq.fu_full::SimdSha1Hash2                0                       # attempts to use FU when none available
system.cpu.iq.fu_full::SimdSha256Hash               0                       # attempts to use FU when none available
system.cpu.iq.fu_full::SimdSha256Hash2              0                       # attempts to use FU when none available
system.cpu.iq.fu_full::SimdShaSigma2                0                       # attempts to use FU when none available
system.cpu.iq.fu_full::SimdShaSigma3                0                       # attempts to use FU when none available
system.cpu.iq.fu_full::SimdPredAlu                  0                       # attempts to use FU when none available
system.cpu.iq.fu_full::MemRead                      0                       # attempts to use FU when none available
system.cpu.iq.fu_full::MemWrite                     0                       # attempts to use FU when none available
system.cpu.iq.fu_full::FloatMemRead                 0                       # attempts to use FU when none available
system.cpu.iq.fu_full::FloatMemWrite                0                       # attempts to use FU when none available
system.cpu.iq.fu_full::IprAccess                    0                       # attempts to use FU when none available
system.cpu.iq.fu_full::InstPrefetch                 0                       # attempts to use FU when none available
system.cpu.iq.int_alu_accesses                4229619                       # Number of integer alu accesses
system.cpu.iq.int_inst_queue_reads           11171915                       # Number of integer instruction queue reads
system.cpu.iq.int_inst_queue_wakeup_accesses      4204721                       # Number of integer instruction queue wakeup accesses
system.cpu.iq.int_inst_queue_writes           5424438                       # Number of integer instruction queue writes
system.cpu.iq.iqInstsAdded                    4683421                       # Number of instructions added to the IQ (excludes non-spec)
system.cpu.iq.iqInstsIssued                   4363552                       # Number of instructions issued
system.cpu.iq.iqNonSpecInstsAdded                1145                       # Number of non-speculative instructions added to the IQ
system.cpu.iq.iqSquashedInstsExamined          891273                       # Number of squashed instructions iterated over during squash; mainly for profiling
system.cpu.iq.iqSquashedInstsIssued             18484                       # Number of squashed instructions issued
system.cpu.iq.iqSquashedNonSpecRemoved            385                       # Number of squashed non-spec instructions that were removed
system.cpu.iq.iqSquashedOperandsExamined      1325521                       # Number of squashed operands that are examined and possibly removed from graph
system.cpu.iq.issued_per_cycle::samples       2639633                       # Number of insts issued each cycle
system.cpu.iq.issued_per_cycle::mean         1.653090                       # Number of insts issued each cycle
system.cpu.iq.issued_per_cycle::stdev        1.671708                       # Number of insts issued each cycle
system.cpu.iq.issued_per_cycle::underflows            0      0.00%      0.00% # Number of insts issued each cycle
system.cpu.iq.issued_per_cycle::0             1168092     44.25%     44.25% # Number of insts issued each cycle
system.cpu.iq.issued_per_cycle::1              179261      6.79%     51.04% # Number of insts issued each cycle
system.cpu.iq.issued_per_cycle::2              314072     11.90%     62.94% # Number of insts issued each cycle
system.cpu.iq.issued_per_cycle::3              356685     13.51%     76.45% # Number of insts issued each cycle
system.cpu.iq.issued_per_cycle::4              621523     23.55%    100.00% # Number of insts issued each cycle
system.cpu.iq.issued_per_cycle::overflows            0      0.00%    100.00% # Number of insts issued each cycle
system.cpu.iq.issued_per_cycle::min_value            0                       # Number of insts issued each cycle
system.cpu.iq.issued_per_cycle::max_value            4                       # Number of insts issued each cycle
system.cpu.iq.issued_per_cycle::total         2639633                       # Number of insts issued each cycle
system.cpu.iq.rate                           1.556100                       # Inst issue rate
system.cpu.iq.vec_alu_accesses                      0                       # Number of vector alu accesses
system.cpu.iq.vec_inst_queue_reads                  0                       # Number of vector instruction queue reads
system.cpu.iq.vec_inst_queue_wakeup_accesses            0                       # Number of vector instruction queue wakeup accesses
system.cpu.iq.vec_inst_queue_writes                 0                       # Number of vector instruction queue writes
system.cpu.itb.rdAccesses                           0                       # TLB accesses on read requests
system.cpu.itb.rdMisses                             0                       # TLB misses on read requests
system.cpu.itb.wrAccesses                      253631                       # TLB accesses on write requests
system.cpu.itb.wrMisses                           387                       # TLB misses on write requests
system.cpu.memDep0.conflictingLoads             12110                       # Number of conflicting loads.
system.cpu.memDep0.conflictingStores             5381                       # Number of conflicting stores.
system.cpu.memDep0.insertedLoads               633311                       # Number of loads inserted to the mem dependence unit.
system.cpu.memDep0.insertedStores              221389                       # Number of stores inserted to the mem dependence unit.
system.cpu.misc_regfile_reads                 1637707                       # number of misc regfile reads
system.cpu.misc_regfile_writes                    702                       # number of misc regfile writes
system.cpu.numCycles                          2804159                       # number of cpu cycles simulated
system.cpu.numWorkItemsCompleted                    0                       # number of work items this cpu completed
system.cpu.numWorkItemsStarted                      0                       # number of work items this cpu started
system.cpu.process.numSyscalls                     57                       # Number of system calls
system.cpu.rename.BlockCycles                  835688                       # Number of cycles rename is blocking
system.cpu.rename.CommittedMaps               5138587                       # Number of HB maps that are committed
system.cpu.rename.FullRegisterEvents              168                       # Number of times there has been no free registers
system.cpu.rename.IQFullEvents                  47389                       # Number of times rename has blocked due to IQ full
system.cpu.rename.IdleCycles                   359813                       # Number of cycles rename is idle
system.cpu.rename.LQFullEvents                  16463                       # Number of times rename has blocked due to LQ full
system.cpu.rename.ROBFullEvents                  4237                       # Number of times rename has blocked due to ROB full
system.cpu.rename.RenameLookups              12595062                       # Number of register rename lookups that rename has made
system.cpu.rename.RenamedInsts                4826370                       # Number of instructions processed by rename
system.cpu.rename.RenamedOperands             6539070                       # Number of destination operands rename has renamed
system.cpu.rename.RunCycles                   1225896                       # Number of cycles rename is running
system.cpu.rename.SQFullEvents                  72814                       # Number of times rename has blocked due to SQ full
system.cpu.rename.SquashCycles                  24421                       # Number of cycles rename is squashing
system.cpu.rename.UnblockCycles                173738                       # Number of cycles rename is unblocking
system.cpu.rename.UndoneMaps                  1400457                       # Number of HB maps that are undone due to squashing
system.cpu.rename.fp_rename_lookups            184083                       # Number of floating rename lookups
system.cpu.rename.int_rename_lookups          7636756                       # Number of integer rename lookups
system.cpu.rename.serializeStallCycles          20077                       # count of cycles rename stalled for serializing inst
system.cpu.rename.serializingInsts                897                       # count of serializing insts renamed
system.cpu.rename.skidInsts                    207726                       # count of insts added to the skid buffer
system.cpu.rename.tempSerializingInsts            950                       # count of temporary serializing insts renamed
system.cpu.rob.rob_reads                      6448464                       # The number of ROB reads
system.cpu.rob.rob_writes                     9613236                       # The number of ROB writes
system.cpu.timesIdled                            1653                       # Number of times that the entire CPU went into an idle state and unscheduled itself
system.l2bus.snoop_filter.hit_multi_requests           12                       # Number of requests hitting in the snoop filter with multiple (>1) holders of the requested data.
system.l2bus.snoop_filter.hit_multi_snoops            1                       # Number of snoops hitting in the snoop filter with multiple (>1) holders of the requested data.
system.l2bus.snoop_filter.hit_single_requests        18569                       # Number of requests hitting in the snoop filter with a single holder of the requested data.
system.l2bus.snoop_filter.hit_single_snoops          439                       # Number of snoops hitting in the snoop filter with a single holder of the requested data.
system.l2bus.snoop_filter.tot_requests          38416                       # Total number of requests made to the snoop filter.
system.l2bus.snoop_filter.tot_snoops              440                       # Total number of snoops made to the snoop filter.
system.l2cache.prefetcher.num_hwpf_issued          713                       # number of hwpf issued
system.l2cache.prefetcher.pfBufferHit               0                       # number of redundant prefetches already in prefetch queue
system.l2cache.prefetcher.pfIdentified            713                       # number of prefetch candidates identified
system.l2cache.prefetcher.pfInCache                 0                       # number of redundant prefetches already in cache/mshr dropped
system.l2cache.prefetcher.pfRemovedFull             0                       # number of prefetches dropped due to prefetch queue size
system.l2cache.prefetcher.pfSpanPage              131                       # number of prefetches that crossed the page
system.membus.snoop_filter.hit_multi_requests            0                       # Number of requests hitting in the snoop filter with multiple (>1) holders of the requested data.
system.membus.snoop_filter.hit_multi_snoops            0                       # Number of snoops hitting in the snoop filter with multiple (>1) holders of the requested data.
system.membus.snoop_filter.hit_single_requests         9469                       # Number of requests hitting in the snoop filter with a single holder of the requested data.
system.membus.snoop_filter.hit_single_snoops            0                       # Number of snoops hitting in the snoop filter with a single holder of the requested data.
system.membus.snoop_filter.tot_requests         23056                       # Total number of requests made to the snoop filter.
system.membus.snoop_filter.tot_snoops               0                       # Total number of snoops made to the snoop filter.
system.membus.pwrStateResidencyTicks::UNDEFINED   1121663200                       # Cumulative time (in ticks) in various power states
system.membus.trans_dist::ReadResp              12237                       # Transaction distribution
system.membus.trans_dist::WritebackDirty         1346                       # Transaction distribution
system.membus.trans_dist::CleanEvict             8123                       # Transaction distribution
system.membus.trans_dist::ReadExReq              1350                       # Transaction distribution
system.membus.trans_dist::ReadExResp             1350                       # Transaction distribution
system.membus.trans_dist::ReadSharedReq         12237                       # Transaction distribution
system.membus.pkt_count_system.l2cache.mem_side::system.mem_ctrl.port        36643                       # Packet count per connected master and slave (bytes)
system.membus.pkt_count_system.l2cache.mem_side::total        36643                       # Packet count per connected master and slave (bytes)
system.membus.pkt_count::total                  36643                       # Packet count per connected master and slave (bytes)
system.membus.pkt_size_system.l2cache.mem_side::system.mem_ctrl.port       955712                       # Cumulative packet size per connected master and slave (bytes)
system.membus.pkt_size_system.l2cache.mem_side::total       955712                       # Cumulative packet size per connected master and slave (bytes)
system.membus.pkt_size::total                  955712                       # Cumulative packet size per connected master and slave (bytes)
system.membus.snoops                                0                       # Total snoops (count)
system.membus.snoopTraffic                          0                       # Total snoop traffic (bytes)
system.membus.snoop_fanout::samples             13587                       # Request fanout histogram
system.membus.snoop_fanout::mean                    0                       # Request fanout histogram
system.membus.snoop_fanout::stdev                   0                       # Request fanout histogram
system.membus.snoop_fanout::underflows              0      0.00%      0.00% # Request fanout histogram
system.membus.snoop_fanout::0                   13587    100.00%    100.00% # Request fanout histogram
system.membus.snoop_fanout::1                       0      0.00%    100.00% # Request fanout histogram
system.membus.snoop_fanout::overflows               0      0.00%    100.00% # Request fanout histogram
system.membus.snoop_fanout::min_value               0                       # Request fanout histogram
system.membus.snoop_fanout::max_value               0                       # Request fanout histogram
system.membus.snoop_fanout::total               13587                       # Request fanout histogram
system.membus.reqLayer2.occupancy            11403784                       # Layer occupancy (ticks)
system.membus.reqLayer2.utilization               1.0                       # Layer utilization (%)
system.membus.respLayer0.occupancy           29489016                       # Layer occupancy (ticks)
system.membus.respLayer0.utilization              2.6                       # Layer utilization (%)
system.l2bus.pwrStateResidencyTicks::UNDEFINED   1121663200                       # Cumulative time (in ticks) in various power states
system.l2bus.trans_dist::ReadResp               17738                       # Transaction distribution
system.l2bus.trans_dist::WritebackDirty          4130                       # Transaction distribution
system.l2bus.trans_dist::CleanEvict             23992                       # Transaction distribution
system.l2bus.trans_dist::HardPFReq               1000                       # Transaction distribution
system.l2bus.trans_dist::ReadExReq               2110                       # Transaction distribution
system.l2bus.trans_dist::ReadExResp              2110                       # Transaction distribution
system.l2bus.trans_dist::ReadSharedReq          17738                       # Transaction distribution
system.l2bus.pkt_count_system.cpu.icache.mem_side::system.l2cache.cpu_side         8525                       # Packet count per connected master and slave (bytes)
system.l2bus.pkt_count_system.cpu.dcache.mem_side::system.l2cache.cpu_side        49736                       # Packet count per connected master and slave (bytes)
system.l2bus.pkt_count::total                   58261                       # Packet count per connected master and slave (bytes)
system.l2bus.pkt_size_system.cpu.icache.mem_side::system.l2cache.cpu_side       187200                       # Cumulative packet size per connected master and slave (bytes)
system.l2bus.pkt_size_system.cpu.dcache.mem_side::system.l2cache.cpu_side      1261056                       # Cumulative packet size per connected master and slave (bytes)
system.l2bus.pkt_size::total                  1448256                       # Cumulative packet size per connected master and slave (bytes)
system.l2bus.snoops                             10557                       # Total snoops (count)
system.l2bus.snoopTraffic                       86336                       # Total snoop traffic (bytes)
system.l2bus.snoop_fanout::samples              30402                       # Request fanout histogram
system.l2bus.snoop_fanout::mean              0.014933                       # Request fanout histogram
system.l2bus.snoop_fanout::stdev             0.121559                       # Request fanout histogram
system.l2bus.snoop_fanout::underflows               0      0.00%      0.00% # Request fanout histogram
system.l2bus.snoop_fanout::0                    29949     98.51%     98.51% # Request fanout histogram
system.l2bus.snoop_fanout::1                      452      1.49%    100.00% # Request fanout histogram
system.l2bus.snoop_fanout::2                        1      0.00%    100.00% # Request fanout histogram
system.l2bus.snoop_fanout::overflows                0      0.00%    100.00% # Request fanout histogram
system.l2bus.snoop_fanout::min_value                0                       # Request fanout histogram
system.l2bus.snoop_fanout::max_value                2                       # Request fanout histogram
system.l2bus.snoop_fanout::total                30402                       # Request fanout histogram
system.l2bus.respLayer1.occupancy            20305197                       # Layer occupancy (ticks)
system.l2bus.respLayer1.utilization               1.8                       # Layer utilization (%)
system.l2bus.reqLayer0.occupancy             19000321                       # Layer occupancy (ticks)
system.l2bus.reqLayer0.utilization                1.7                       # Layer utilization (%)
system.l2bus.respLayer0.occupancy             3514797                       # Layer occupancy (ticks)
system.l2bus.respLayer0.utilization               0.3                       # Layer utilization (%)
system.clk_domain.clock                           400                       # Clock period in ticks
system.clk_domain.voltage_domain.voltage            1                       # Voltage in Volts
system.cpu.pwrStateResidencyTicks::ON      1121663200                       # Cumulative time (in ticks) in various power states
system.cpu.icache.pwrStateResidencyTicks::UNDEFINED   1121663200                       # Cumulative time (in ticks) in various power states
system.cpu.icache.demand_hits::.cpu.inst       249861                       # number of demand (read+write) hits
system.cpu.icache.demand_hits::total           249861                       # number of demand (read+write) hits
system.cpu.icache.overall_hits::.cpu.inst       249861                       # number of overall hits
system.cpu.icache.overall_hits::total          249861                       # number of overall hits
system.cpu.icache.demand_misses::.cpu.inst         3632                       # number of demand (read+write) misses
system.cpu.icache.demand_misses::total           3632                       # number of demand (read+write) misses
system.cpu.icache.overall_misses::.cpu.inst         3632                       # number of overall misses
system.cpu.icache.overall_misses::total          3632                       # number of overall misses
system.cpu.icache.demand_miss_latency::.cpu.inst    180330800                       # number of demand (read+write) miss cycles
system.cpu.icache.demand_miss_latency::total    180330800                       # number of demand (read+write) miss cycles
system.cpu.icache.overall_miss_latency::.cpu.inst    180330800                       # number of overall miss cycles
system.cpu.icache.overall_miss_latency::total    180330800                       # number of overall miss cycles
system.cpu.icache.demand_accesses::.cpu.inst       253493                       # number of demand (read+write) accesses
system.cpu.icache.demand_accesses::total       253493                       # number of demand (read+write) accesses
system.cpu.icache.overall_accesses::.cpu.inst       253493                       # number of overall (read+write) accesses
system.cpu.icache.overall_accesses::total       253493                       # number of overall (read+write) accesses
system.cpu.icache.demand_miss_rate::.cpu.inst     0.014328                       # miss rate for demand accesses
system.cpu.icache.demand_miss_rate::total     0.014328                       # miss rate for demand accesses
system.cpu.icache.overall_miss_rate::.cpu.inst     0.014328                       # miss rate for overall accesses
system.cpu.icache.overall_miss_rate::total     0.014328                       # miss rate for overall accesses
system.cpu.icache.demand_avg_miss_latency::.cpu.inst 49650.550661                       # average overall miss latency
system.cpu.icache.demand_avg_miss_latency::total 49650.550661                       # average overall miss latency
system.cpu.icache.overall_avg_miss_latency::.cpu.inst 49650.550661                       # average overall miss latency
system.cpu.icache.overall_avg_miss_latency::total 49650.550661                       # average overall miss latency
system.cpu.icache.blocked_cycles::no_mshrs           40                       # number of cycles access was blocked
system.cpu.icache.blocked_cycles::no_targets            0                       # number of cycles access was blocked
system.cpu.icache.blocked::no_mshrs                 3                       # number of cycles access was blocked
system.cpu.icache.blocked::no_targets               0                       # number of cycles access was blocked
system.cpu.icache.avg_blocked_cycles::no_mshrs    13.333333                       # average number of cycles each access was blocked
system.cpu.icache.avg_blocked_cycles::no_targets          nan                       # average number of cycles each access was blocked
system.cpu.icache.demand_mshr_hits::.cpu.inst          704                       # number of demand (read+write) MSHR hits
system.cpu.icache.demand_mshr_hits::total          704                       # number of demand (read+write) MSHR hits
system.cpu.icache.overall_mshr_hits::.cpu.inst          704                       # number of overall MSHR hits
system.cpu.icache.overall_mshr_hits::total          704                       # number of overall MSHR hits
system.cpu.icache.demand_mshr_misses::.cpu.inst         2928                       # number of demand (read+write) MSHR misses
system.cpu.icache.demand_mshr_misses::total         2928                       # number of demand (read+write) MSHR misses
system.cpu.icache.overall_mshr_misses::.cpu.inst         2928                       # number of overall MSHR misses
system.cpu.icache.overall_mshr_misses::total         2928                       # number of overall MSHR misses
system.cpu.icache.demand_mshr_miss_latency::.cpu.inst    145958000                       # number of demand (read+write) MSHR miss cycles
system.cpu.icache.demand_mshr_miss_latency::total    145958000                       # number of demand (read+write) MSHR miss cycles
system.cpu.icache.overall_mshr_miss_latency::.cpu.inst    145958000                       # number of overall MSHR miss cycles
system.cpu.icache.overall_mshr_miss_latency::total    145958000                       # number of overall MSHR miss cycles
system.cpu.icache.demand_mshr_miss_rate::.cpu.inst     0.011551                       # mshr miss rate for demand accesses
system.cpu.icache.demand_mshr_miss_rate::total     0.011551                       # mshr miss rate for demand accesses
system.cpu.icache.overall_mshr_miss_rate::.cpu.inst     0.011551                       # mshr miss rate for overall accesses
system.cpu.icache.overall_mshr_miss_rate::total     0.011551                       # mshr miss rate for overall accesses
system.cpu.icache.demand_avg_mshr_miss_latency::.cpu.inst 49849.043716                       # average overall mshr miss latency
system.cpu.icache.demand_avg_mshr_miss_latency::total 49849.043716                       # average overall mshr miss latency
system.cpu.icache.overall_avg_mshr_miss_latency::.cpu.inst 49849.043716                       # average overall mshr miss latency
system.cpu.icache.overall_avg_mshr_miss_latency::total 49849.043716                       # average overall mshr miss latency
system.cpu.icache.replacements                   2672                       # number of replacements
system.cpu.icache.ReadReq_hits::.cpu.inst       249861                       # number of ReadReq hits
system.cpu.icache.ReadReq_hits::total          249861                       # number of ReadReq hits
system.cpu.icache.ReadReq_misses::.cpu.inst         3632                       # number of ReadReq misses
system.cpu.icache.ReadReq_misses::total          3632                       # number of ReadReq misses
system.cpu.icache.ReadReq_miss_latency::.cpu.inst    180330800                       # number of ReadReq miss cycles
system.cpu.icache.ReadReq_miss_latency::total    180330800                       # number of ReadReq miss cycles
system.cpu.icache.ReadReq_accesses::.cpu.inst       253493                       # number of ReadReq accesses(hits+misses)
system.cpu.icache.ReadReq_accesses::total       253493                       # number of ReadReq accesses(hits+misses)
system.cpu.icache.ReadReq_miss_rate::.cpu.inst     0.014328                       # miss rate for ReadReq accesses
system.cpu.icache.ReadReq_miss_rate::total     0.014328                       # miss rate for ReadReq accesses
system.cpu.icache.ReadReq_avg_miss_latency::.cpu.inst 49650.550661                       # average ReadReq miss latency
system.cpu.icache.ReadReq_avg_miss_latency::total 49650.550661                       # average ReadReq miss latency
system.cpu.icache.ReadReq_mshr_hits::.cpu.inst          704                       # number of ReadReq MSHR hits
system.cpu.icache.ReadReq_mshr_hits::total          704                       # number of ReadReq MSHR hits
system.cpu.icache.ReadReq_mshr_misses::.cpu.inst         2928                       # number of ReadReq MSHR misses
system.cpu.icache.ReadReq_mshr_misses::total         2928                       # number of ReadReq MSHR misses
system.cpu.icache.ReadReq_mshr_miss_latency::.cpu.inst    145958000                       # number of ReadReq MSHR miss cycles
system.cpu.icache.ReadReq_mshr_miss_latency::total    145958000                       # number of ReadReq MSHR miss cycles
system.cpu.icache.ReadReq_mshr_miss_rate::.cpu.inst     0.011551                       # mshr miss rate for ReadReq accesses
system.cpu.icache.ReadReq_mshr_miss_rate::total     0.011551                       # mshr miss rate for ReadReq accesses
system.cpu.icache.ReadReq_avg_mshr_miss_latency::.cpu.inst 49849.043716                       # average ReadReq mshr miss latency
system.cpu.icache.ReadReq_avg_mshr_miss_latency::total 49849.043716                       # average ReadReq mshr miss latency
system.cpu.icache.prefetcher.pwrStateResidencyTicks::UNDEFINED   1121663200                       # Cumulative time (in ticks) in various power states
system.cpu.icache.tags.pwrStateResidencyTicks::UNDEFINED   1121663200                       # Cumulative time (in ticks) in various power states
system.cpu.icache.tags.tagsinuse           253.533817                       # Cycle average of tags in use
system.cpu.icache.tags.total_refs              240019                       # Total number of references to valid blocks.
system.cpu.icache.tags.sampled_refs              2672                       # Sample count of references to valid blocks.
system.cpu.icache.tags.avg_refs             89.827470                       # Average number of references to valid blocks.
system.cpu.icache.tags.warmup_cycle             66400                       # Cycle when the warmup percentage was hit.
system.cpu.icache.tags.occ_blocks::.cpu.inst   253.533817                       # Average occupied blocks per requestor
system.cpu.icache.tags.occ_percent::.cpu.inst     0.990366                       # Average percentage of cache occupancy
system.cpu.icache.tags.occ_percent::total     0.990366                       # Average percentage of cache occupancy
system.cpu.icache.tags.occ_task_id_blocks::1024          256                       # Occupied blocks per task id
system.cpu.icache.tags.age_task_id_blocks_1024::0          111                       # Occupied blocks per task id
system.cpu.icache.tags.age_task_id_blocks_1024::1          120                       # Occupied blocks per task id
system.cpu.icache.tags.age_task_id_blocks_1024::2           24                       # Occupied blocks per task id
system.cpu.icache.tags.age_task_id_blocks_1024::3            1                       # Occupied blocks per task id
system.cpu.icache.tags.occ_task_id_percent::1024            1                       # Percentage of cache occupancy per task id
system.cpu.icache.tags.tag_accesses            509914                       # Number of tag accesses
system.cpu.icache.tags.data_accesses           509914                       # Number of data accesses
system.cpu.dtb.walker.pwrStateResidencyTicks::UNDEFINED   1121663200                       # Cumulative time (in ticks) in various power states
system.cpu.interrupts.clk_domain.clock           6400                       # Clock period in ticks
system.cpu.itb.walker.pwrStateResidencyTicks::UNDEFINED   1121663200                       # Cumulative time (in ticks) in various power states
system.cpu.dcache.pwrStateResidencyTicks::UNDEFINED   1121663200                       # Cumulative time (in ticks) in various power states
system.cpu.dcache.demand_hits::.cpu.data       714146                       # number of demand (read+write) hits
system.cpu.dcache.demand_hits::total           714146                       # number of demand (read+write) hits
system.cpu.dcache.overall_hits::.cpu.data       714146                       # number of overall hits
system.cpu.dcache.overall_hits::total          714146                       # number of overall hits
system.cpu.dcache.demand_misses::.cpu.data        34762                       # number of demand (read+write) misses
system.cpu.dcache.demand_misses::total          34762                       # number of demand (read+write) misses
system.cpu.dcache.overall_misses::.cpu.data        34762                       # number of overall misses
system.cpu.dcache.overall_misses::total         34762                       # number of overall misses
system.cpu.dcache.demand_miss_latency::.cpu.data   1680349199                       # number of demand (read+write) miss cycles
system.cpu.dcache.demand_miss_latency::total   1680349199                       # number of demand (read+write) miss cycles
system.cpu.dcache.overall_miss_latency::.cpu.data   1680349199                       # number of overall miss cycles
system.cpu.dcache.overall_miss_latency::total   1680349199                       # number of overall miss cycles
system.cpu.dcache.demand_accesses::.cpu.data       748908                       # number of demand (read+write) accesses
system.cpu.dcache.demand_accesses::total       748908                       # number of demand (read+write) accesses
system.cpu.dcache.overall_accesses::.cpu.data       748908                       # number of overall (read+write) accesses
system.cpu.dcache.overall_accesses::total       748908                       # number of overall (read+write) accesses
system.cpu.dcache.demand_miss_rate::.cpu.data     0.046417                       # miss rate for demand accesses
system.cpu.dcache.demand_miss_rate::total     0.046417                       # miss rate for demand accesses
system.cpu.dcache.overall_miss_rate::.cpu.data     0.046417                       # miss rate for overall accesses
system.cpu.dcache.overall_miss_rate::total     0.046417                       # miss rate for overall accesses
system.cpu.dcache.demand_avg_miss_latency::.cpu.data 48338.680139                       # average overall miss latency
system.cpu.dcache.demand_avg_miss_latency::total 48338.680139                       # average overall miss latency
system.cpu.dcache.overall_avg_miss_latency::.cpu.data 48338.680139                       # average overall miss latency
system.cpu.dcache.overall_avg_miss_latency::total 48338.680139                       # average overall miss latency
system.cpu.dcache.blocked_cycles::no_mshrs        29566                       # number of cycles access was blocked
system.cpu.dcache.blocked_cycles::no_targets          138                       # number of cycles access was blocked
system.cpu.dcache.blocked::no_mshrs               789                       # number of cycles access was blocked
system.cpu.dcache.blocked::no_targets               1                       # number of cycles access was blocked
system.cpu.dcache.avg_blocked_cycles::no_mshrs    37.472750                       # average number of cycles each access was blocked
system.cpu.dcache.avg_blocked_cycles::no_targets          138                       # average number of cycles each access was blocked
system.cpu.dcache.unused_prefetches              1739                       # number of HardPF blocks evicted w/o reference
system.cpu.dcache.writebacks::.writebacks         2784                       # number of writebacks
system.cpu.dcache.writebacks::total              2784                       # number of writebacks
system.cpu.dcache.demand_mshr_hits::.cpu.data        22145                       # number of demand (read+write) MSHR hits
system.cpu.dcache.demand_mshr_hits::total        22145                       # number of demand (read+write) MSHR hits
system.cpu.dcache.overall_mshr_hits::.cpu.data        22145                       # number of overall MSHR hits
system.cpu.dcache.overall_mshr_hits::total        22145                       # number of overall MSHR hits
system.cpu.dcache.demand_mshr_misses::.cpu.data        12617                       # number of demand (read+write) MSHR misses
system.cpu.dcache.demand_mshr_misses::total        12617                       # number of demand (read+write) MSHR misses
system.cpu.dcache.overall_mshr_misses::.cpu.data        12617                       # number of overall MSHR misses
system.cpu.dcache.overall_mshr_misses::.cpu.dcache.prefetcher         4303                       # number of overall MSHR misses
system.cpu.dcache.overall_mshr_misses::total        16920                       # number of overall MSHR misses
system.cpu.dcache.demand_mshr_miss_latency::.cpu.data    576186799                       # number of demand (read+write) MSHR miss cycles
system.cpu.dcache.demand_mshr_miss_latency::total    576186799                       # number of demand (read+write) MSHR miss cycles
system.cpu.dcache.overall_mshr_miss_latency::.cpu.data    576186799                       # number of overall MSHR miss cycles
system.cpu.dcache.overall_mshr_miss_latency::.cpu.dcache.prefetcher    248394989                       # number of overall MSHR miss cycles
system.cpu.dcache.overall_mshr_miss_latency::total    824581788                       # number of overall MSHR miss cycles
system.cpu.dcache.demand_mshr_miss_rate::.cpu.data     0.016847                       # mshr miss rate for demand accesses
system.cpu.dcache.demand_mshr_miss_rate::total     0.016847                       # mshr miss rate for demand accesses
system.cpu.dcache.overall_mshr_miss_rate::.cpu.data     0.016847                       # mshr miss rate for overall accesses
system.cpu.dcache.overall_mshr_miss_rate::.cpu.dcache.prefetcher          inf                       # mshr miss rate for overall accesses
system.cpu.dcache.overall_mshr_miss_rate::total     0.022593                       # mshr miss rate for overall accesses
system.cpu.dcache.demand_avg_mshr_miss_latency::.cpu.data 45667.496156                       # average overall mshr miss latency
system.cpu.dcache.demand_avg_mshr_miss_latency::total 45667.496156                       # average overall mshr miss latency
system.cpu.dcache.overall_avg_mshr_miss_latency::.cpu.data 45667.496156                       # average overall mshr miss latency
system.cpu.dcache.overall_avg_mshr_miss_latency::.cpu.dcache.prefetcher 57726.002556                       # average overall mshr miss latency
system.cpu.dcache.overall_avg_mshr_miss_latency::total 48734.148227                       # average overall mshr miss latency
system.cpu.dcache.replacements                  15896                       # number of replacements
system.cpu.dcache.ReadReq_hits::.cpu.data       524569                       # number of ReadReq hits
system.cpu.dcache.ReadReq_hits::total          524569                       # number of ReadReq hits
system.cpu.dcache.ReadReq_misses::.cpu.data        32617                       # number of ReadReq misses
system.cpu.dcache.ReadReq_misses::total         32617                       # number of ReadReq misses
system.cpu.dcache.ReadReq_miss_latency::.cpu.data   1574960400                       # number of ReadReq miss cycles
system.cpu.dcache.ReadReq_miss_latency::total   1574960400                       # number of ReadReq miss cycles
system.cpu.dcache.ReadReq_accesses::.cpu.data       557186                       # number of ReadReq accesses(hits+misses)
system.cpu.dcache.ReadReq_accesses::total       557186                       # number of ReadReq accesses(hits+misses)
system.cpu.dcache.ReadReq_miss_rate::.cpu.data     0.058539                       # miss rate for ReadReq accesses
system.cpu.dcache.ReadReq_miss_rate::total     0.058539                       # miss rate for ReadReq accesses
system.cpu.dcache.ReadReq_avg_miss_latency::.cpu.data 48286.488641                       # average ReadReq miss latency
system.cpu.dcache.ReadReq_avg_miss_latency::total 48286.488641                       # average ReadReq miss latency
system.cpu.dcache.ReadReq_mshr_hits::.cpu.data        22108                       # number of ReadReq MSHR hits
system.cpu.dcache.ReadReq_mshr_hits::total        22108                       # number of ReadReq MSHR hits
system.cpu.dcache.ReadReq_mshr_misses::.cpu.data        10509                       # number of ReadReq MSHR misses
system.cpu.dcache.ReadReq_mshr_misses::total        10509                       # number of ReadReq MSHR misses
system.cpu.dcache.ReadReq_mshr_miss_latency::.cpu.data    473895600                       # number of ReadReq MSHR miss cycles
system.cpu.dcache.ReadReq_mshr_miss_latency::total    473895600                       # number of ReadReq MSHR miss cycles
system.cpu.dcache.ReadReq_mshr_miss_rate::.cpu.data     0.018861                       # mshr miss rate for ReadReq accesses
system.cpu.dcache.ReadReq_mshr_miss_rate::total     0.018861                       # mshr miss rate for ReadReq accesses
system.cpu.dcache.ReadReq_avg_mshr_miss_latency::.cpu.data 45094.262061                       # average ReadReq mshr miss latency
system.cpu.dcache.ReadReq_avg_mshr_miss_latency::total 45094.262061                       # average ReadReq mshr miss latency
system.cpu.dcache.WriteReq_hits::.cpu.data       189577                       # number of WriteReq hits
system.cpu.dcache.WriteReq_hits::total         189577                       # number of WriteReq hits
system.cpu.dcache.WriteReq_misses::.cpu.data         2145                       # number of WriteReq misses
system.cpu.dcache.WriteReq_misses::total         2145                       # number of WriteReq misses
system.cpu.dcache.WriteReq_miss_latency::.cpu.data    105388799                       # number of WriteReq miss cycles
system.cpu.dcache.WriteReq_miss_latency::total    105388799                       # number of WriteReq miss cycles
system.cpu.dcache.WriteReq_accesses::.cpu.data       191722                       # number of WriteReq accesses(hits+misses)
system.cpu.dcache.WriteReq_accesses::total       191722                       # number of WriteReq accesses(hits+misses)
system.cpu.dcache.WriteReq_miss_rate::.cpu.data     0.011188                       # miss rate for WriteReq accesses
system.cpu.dcache.WriteReq_miss_rate::total     0.011188                       # miss rate for WriteReq accesses
system.cpu.dcache.WriteReq_avg_miss_latency::.cpu.data 49132.307226                       # average WriteReq miss latency
system.cpu.dcache.WriteReq_avg_miss_latency::total 49132.307226                       # average WriteReq miss latency
system.cpu.dcache.WriteReq_mshr_hits::.cpu.data           37                       # number of WriteReq MSHR hits
system.cpu.dcache.WriteReq_mshr_hits::total           37                       # number of WriteReq MSHR hits
system.cpu.dcache.WriteReq_mshr_misses::.cpu.data         2108                       # number of WriteReq MSHR misses
system.cpu.dcache.WriteReq_mshr_misses::total         2108                       # number of WriteReq MSHR misses
system.cpu.dcache.WriteReq_mshr_miss_latency::.cpu.data    102291199                       # number of WriteReq MSHR miss cycles
[...]
system.l2cache.overall_mshr_miss_latency::total     22880368                       # number of overall MSHR miss cycles
system.l2cache.demand_mshr_miss_rate::.cpu.inst     0.498943                       # mshr miss rate for demand accesses
system.l2cache.demand_mshr_miss_rate::.cpu.data     0.500000                       # mshr miss rate for demand accesses
system.l2cache.demand_mshr_miss_rate::.cpu.dcache.prefetcher     0.750000                       # mshr miss rate for demand accesses
system.l2cache.demand_mshr_miss_rate::total     0.512821                       # mshr miss rate for demand accesses
system.l2cache.overall_mshr_miss_rate::.cpu.inst     0.498943                       # mshr miss rate for overall accesses
system.l2cache.overall_mshr_miss_rate::.cpu.data     0.500000                       # mshr miss rate for overall accesses
system.l2cache.overall_mshr_miss_rate::.cpu.dcache.prefetcher     0.750000                       # mshr miss rate for overall accesses
system.l2cache.overall_mshr_miss_rate::.l2cache.prefetcher          inf                       # mshr miss rate for overall accesses
system.l2cache.overall_mshr_miss_rate::total     0.515520                       # mshr miss rate for overall accesses
system.l2cache.demand_avg_mshr_miss_latency::.cpu.inst 59237.288136                       # average overall mshr miss latency
system.l2cache.demand_avg_mshr_miss_latency::.cpu.data 60845.614035                       # average overall mshr miss latency
system.l2cache.demand_avg_mshr_miss_latency::.cpu.dcache.prefetcher 61359.033333                       # average overall mshr miss latency
system.l2cache.demand_avg_mshr_miss_latency::total 59887.292105                       # average overall mshr miss latency
system.l2cache.overall_avg_mshr_miss_latency::.cpu.inst 59237.288136                       # average overall mshr miss latency
system.l2cache.overall_avg_mshr_miss_latency::.cpu.data 60845.614035                       # average overall mshr miss latency
system.l2cache.overall_avg_mshr_miss_latency::.cpu.dcache.prefetcher 61359.033333                       # average overall mshr miss latency
system.l2cache.overall_avg_mshr_miss_latency::.l2cache.prefetcher 61598.500000                       # average overall mshr miss latency
system.l2cache.overall_avg_mshr_miss_latency::total 59896.251309                       # average overall mshr miss latency
system.l2cache.replacements                       390                       # number of replacements
system.l2cache.WritebackDirty_hits::.writebacks           75                       # number of WritebackDirty hits
system.l2cache.WritebackDirty_hits::total           75                       # number of WritebackDirty hits
system.l2cache.WritebackDirty_accesses::.writebacks           75                       # number of WritebackDirty accesses(hits+misses)
system.l2cache.WritebackDirty_accesses::total           75                       # number of WritebackDirty accesses(hits+misses)
system.l2cache.CleanEvict_mshr_misses::.writebacks            9                       # number of CleanEvict MSHR misses
system.l2cache.CleanEvict_mshr_misses::total            9                       # number of CleanEvict MSHR misses
system.l2cache.CleanEvict_mshr_miss_rate::.writebacks          inf                       # mshr miss rate for CleanEvict accesses
system.l2cache.CleanEvict_mshr_miss_rate::total          inf                       # mshr miss rate for CleanEvict accesses
system.l2cache.HardPFReq_mshr_misses::.l2cache.prefetcher            2                       # number of HardPFReq MSHR misses
system.l2cache.HardPFReq_mshr_misses::total            2                       # number of HardPFReq MSHR misses
system.l2cache.HardPFReq_mshr_miss_latency::.l2cache.prefetcher       123197                       # number of HardPFReq MSHR miss cycles
system.l2cache.HardPFReq_mshr_miss_latency::total       123197                       # number of HardPFReq MSHR miss cycles
system.l2cache.HardPFReq_mshr_miss_rate::.l2cache.prefetcher          inf                       # mshr miss rate for HardPFReq accesses
system.l2cache.HardPFReq_mshr_miss_rate::total          inf                       # mshr miss rate for HardPFReq accesses
system.l2cache.HardPFReq_avg_mshr_miss_latency::.l2cache.prefetcher 61598.500000                       # average HardPFReq mshr miss latency
system.l2cache.HardPFReq_avg_mshr_miss_latency::total 61598.500000                       # average HardPFReq mshr miss latency
system.l2cache.ReadExReq_hits::.cpu.data            4                       # number of ReadExReq hits
system.l2cache.ReadExReq_hits::total                4                       # number of ReadExReq hits
system.l2cache.ReadExReq_misses::.cpu.data            6                       # number of ReadExReq misses
system.l2cache.ReadExReq_misses::total              6                       # number of ReadExReq misses
system.l2cache.ReadExReq_miss_latency::.cpu.data       377200                       # number of ReadExReq miss cycles
system.l2cache.ReadExReq_miss_latency::total       377200                       # number of ReadExReq miss cycles
system.l2cache.ReadExReq_accesses::.cpu.data           10                       # number of ReadExReq accesses(hits+misses)
system.l2cache.ReadExReq_accesses::total           10                       # number of ReadExReq accesses(hits+misses)
system.l2cache.ReadExReq_miss_rate::.cpu.data     0.600000                       # miss rate for ReadExReq accesses
system.l2cache.ReadExReq_miss_rate::total     0.600000                       # miss rate for ReadExReq accesses
system.l2cache.ReadExReq_avg_miss_latency::.cpu.data 62866.666667                       # average ReadExReq miss latency
system.l2cache.ReadExReq_avg_miss_latency::total 62866.666667                       # average ReadExReq miss latency
system.l2cache.ReadExReq_mshr_misses::.cpu.data            6                       # number of ReadExReq MSHR misses
system.l2cache.ReadExReq_mshr_misses::total            6                       # number of ReadExReq MSHR misses
system.l2cache.ReadExReq_mshr_miss_latency::.cpu.data       329200                       # number of ReadExReq MSHR miss cycles
system.l2cache.ReadExReq_mshr_miss_latency::total       329200                       # number of ReadExReq MSHR miss cycles
system.l2cache.ReadExReq_mshr_miss_rate::.cpu.data     0.600000                       # mshr miss rate for ReadExReq accesses
system.l2cache.ReadExReq_mshr_miss_rate::total     0.600000                       # mshr miss rate for ReadExReq accesses
system.l2cache.ReadExReq_avg_mshr_miss_latency::.cpu.data 54866.666667                       # average ReadExReq mshr miss latency
system.l2cache.ReadExReq_avg_mshr_miss_latency::total 54866.666667                       # average ReadExReq mshr miss latency
system.l2cache.ReadSharedReq_hits::.cpu.inst          237                       # number of ReadSharedReq hits
system.l2cache.ReadSharedReq_hits::.cpu.data          110                       # number of ReadSharedReq hits
system.l2cache.ReadSharedReq_hits::.cpu.dcache.prefetcher           10                       # number of ReadSharedReq hits
system.l2cache.ReadSharedReq_hits::total          357                       # number of ReadSharedReq hits
system.l2cache.ReadSharedReq_misses::.cpu.inst          236                       # number of ReadSharedReq misses
system.l2cache.ReadSharedReq_misses::.cpu.data          108                       # number of ReadSharedReq misses
system.l2cache.ReadSharedReq_misses::.cpu.dcache.prefetcher           30                       # number of ReadSharedReq misses
system.l2cache.ReadSharedReq_misses::total          374                       # number of ReadSharedReq misses
system.l2cache.ReadSharedReq_miss_latency::.cpu.inst     15860000                       # number of ReadSharedReq miss cycles
system.l2cache.ReadSharedReq_miss_latency::.cpu.data      7471200                       # number of ReadSharedReq miss cycles
system.l2cache.ReadSharedReq_miss_latency::.cpu.dcache.prefetcher      2080771                       # number of ReadSharedReq miss cycles
system.l2cache.ReadSharedReq_miss_latency::total     25411971                       # number of ReadSharedReq miss cycles
system.l2cache.ReadSharedReq_accesses::.cpu.inst          473                       # number of ReadSharedReq accesses(hits+misses)
system.l2cache.ReadSharedReq_accesses::.cpu.data          218                       # number of ReadSharedReq accesses(hits+misses)
system.l2cache.ReadSharedReq_accesses::.cpu.dcache.prefetcher           40                       # number of ReadSharedReq accesses(hits+misses)
system.l2cache.ReadSharedReq_accesses::total          731                       # number of ReadSharedReq accesses(hits+misses)
system.l2cache.ReadSharedReq_miss_rate::.cpu.inst     0.498943                       # miss rate for ReadSharedReq accesses
system.l2cache.ReadSharedReq_miss_rate::.cpu.data     0.495413                       # miss rate for ReadSharedReq accesses
system.l2cache.ReadSharedReq_miss_rate::.cpu.dcache.prefetcher     0.750000                       # miss rate for ReadSharedReq accesses
system.l2cache.ReadSharedReq_miss_rate::total     0.511628                       # miss rate for ReadSharedReq accesses
system.l2cache.ReadSharedReq_avg_miss_latency::.cpu.inst 67203.389831                       # average ReadSharedReq miss latency
system.l2cache.ReadSharedReq_avg_miss_latency::.cpu.data 69177.777778                       # average ReadSharedReq miss latency
system.l2cache.ReadSharedReq_avg_miss_latency::.cpu.dcache.prefetcher 69359.033333                       # average ReadSharedReq miss latency
system.l2cache.ReadSharedReq_avg_miss_latency::total 67946.446524                       # average ReadSharedReq miss latency
system.l2cache.ReadSharedReq_mshr_misses::.cpu.inst          236                       # number of ReadSharedReq MSHR misses
system.l2cache.ReadSharedReq_mshr_misses::.cpu.data          108                       # number of ReadSharedReq MSHR misses
system.l2cache.ReadSharedReq_mshr_misses::.cpu.dcache.prefetcher           30                       # number of ReadSharedReq MSHR misses
system.l2cache.ReadSharedReq_mshr_misses::total          374                       # number of ReadSharedReq MSHR misses
system.l2cache.ReadSharedReq_mshr_miss_latency::.cpu.inst     13980000                       # number of ReadSharedReq MSHR miss cycles
system.l2cache.ReadSharedReq_mshr_miss_latency::.cpu.data      6607200                       # number of ReadSharedReq MSHR miss cycles
system.l2cache.ReadSharedReq_mshr_miss_latency::.cpu.dcache.prefetcher      1840771                       # number of ReadSharedReq MSHR miss cycles
system.l2cache.ReadSharedReq_mshr_miss_latency::total     22427971                       # number of ReadSharedReq MSHR miss cycles
system.l2cache.ReadSharedReq_mshr_miss_rate::.cpu.inst     0.498943                       # mshr miss rate for ReadSharedReq accesses
system.l2cache.ReadSharedReq_mshr_miss_rate::.cpu.data     0.495413                       # mshr miss rate for ReadSharedReq accesses
system.l2cache.ReadSharedReq_mshr_miss_rate::.cpu.dcache.prefetcher     0.750000                       # mshr miss rate for ReadSharedReq accesses
system.l2cache.ReadSharedReq_mshr_miss_rate::total     0.511628                       # mshr miss rate for ReadSharedReq accesses
system.l2cache.ReadSharedReq_avg_mshr_miss_latency::.cpu.inst 59237.288136                       # average ReadSharedReq mshr miss latency
system.l2cache.ReadSharedReq_avg_mshr_miss_latency::.cpu.data 61177.777778                       # average ReadSharedReq mshr miss latency
system.l2cache.ReadSharedReq_avg_mshr_miss_latency::.cpu.dcache.prefetcher 61359.033333                       # average ReadSharedReq mshr miss latency
system.l2cache.ReadSharedReq_avg_mshr_miss_latency::total 59967.836898                       # average ReadSharedReq mshr miss latency
system.l2cache.prefetcher.pwrStateResidencyTicks::UNDEFINED     28057600                       # Cumulative time (in ticks) in various power states
system.l2cache.tags.pwrStateResidencyTicks::UNDEFINED     28057600                       # Cumulative time (in ticks) in various power states
system.l2cache.tags.tagsinuse                    4096                       # Cycle average of tags in use
system.l2cache.tags.total_refs                  14022                       # Total number of references to valid blocks.
system.l2cache.tags.sampled_refs                 4486                       # Sample count of references to valid blocks.
system.l2cache.tags.avg_refs                 3.125724                       # Average number of references to valid blocks.
system.l2cache.tags.warmup_cycle                    0                       # Cycle when the warmup percentage was hit.
system.l2cache.tags.occ_blocks::.writebacks    39.298001                       # Average occupied blocks per requestor
system.l2cache.tags.occ_blocks::.cpu.inst  1142.822640                       # Average occupied blocks per requestor
system.l2cache.tags.occ_blocks::.cpu.data  1816.524448                       # Average occupied blocks per requestor
system.l2cache.tags.occ_blocks::.cpu.dcache.prefetcher   970.376723                       # Average occupied blocks per requestor
system.l2cache.tags.occ_blocks::.l2cache.prefetcher   126.978188                       # Average occupied blocks per requestor
system.l2cache.tags.occ_percent::.writebacks     0.009594                       # Average percentage of cache occupancy
system.l2cache.tags.occ_percent::.cpu.inst     0.279009                       # Average percentage of cache occupancy
system.l2cache.tags.occ_percent::.cpu.data     0.443487                       # Average percentage of cache occupancy
system.l2cache.tags.occ_percent::.cpu.dcache.prefetcher     0.236908                       # Average percentage of cache occupancy
system.l2cache.tags.occ_percent::.l2cache.prefetcher     0.031001                       # Average percentage of cache occupancy
system.l2cache.tags.occ_percent::total              1                       # Average percentage of cache occupancy
system.l2cache.tags.occ_task_id_blocks::1022         1038                       # Occupied blocks per task id
system.l2cache.tags.occ_task_id_blocks::1024         3058                       # Occupied blocks per task id
system.l2cache.tags.age_task_id_blocks_1022::0           11                       # Occupied blocks per task id
system.l2cache.tags.age_task_id_blocks_1022::1           81                       # Occupied blocks per task id
system.l2cache.tags.age_task_id_blocks_1022::2          944                       # Occupied blocks per task id
system.l2cache.tags.age_task_id_blocks_1022::3            2                       # Occupied blocks per task id
system.l2cache.tags.age_task_id_blocks_1024::0          173                       # Occupied blocks per task id
system.l2cache.tags.age_task_id_blocks_1024::1          624                       # Occupied blocks per task id
system.l2cache.tags.age_task_id_blocks_1024::2         2219                       # Occupied blocks per task id
system.l2cache.tags.age_task_id_blocks_1024::3           42                       # Occupied blocks per task id
system.l2cache.tags.occ_task_id_percent::1022     0.253418                       # Percentage of cache occupancy per task id
system.l2cache.tags.occ_task_id_percent::1024     0.746582                       # Percentage of cache occupancy per task id
system.l2cache.tags.tag_accesses                12230                       # Number of tag accesses
system.l2cache.tags.data_accesses               12230                       # Number of data accesses
system.mem_ctrl.pwrStateResidencyTicks::UNDEFINED     28057600                       # Cumulative time (in ticks) in various power states
system.mem_ctrl.bytes_read::.cpu.inst           15040                       # Number of bytes read from this memory
system.mem_ctrl.bytes_read::.cpu.data            7296                       # Number of bytes read from this memory
system.mem_ctrl.bytes_read::.cpu.dcache.prefetcher         1920                       # Number of bytes read from this memory
system.mem_ctrl.bytes_read::.l2cache.prefetcher          128                       # Number of bytes read from this memory
system.mem_ctrl.bytes_read::total               24384                       # Number of bytes read from this memory
system.mem_ctrl.bytes_inst_read::.cpu.inst        15040                       # Number of instructions bytes read from this memory
system.mem_ctrl.bytes_inst_read::total          15040                       # Number of instructions bytes read from this memory
system.mem_ctrl.bytes_written::.writebacks         1408                       # Number of bytes written to this memory
system.mem_ctrl.bytes_written::total             1408                       # Number of bytes written to this memory
system.mem_ctrl.num_reads::.cpu.inst              235                       # Number of read requests responded to by this memory
system.mem_ctrl.num_reads::.cpu.data              114                       # Number of read requests responded to by this memory
system.mem_ctrl.num_reads::.cpu.dcache.prefetcher           30                       # Number of read requests responded to by this memory
system.mem_ctrl.num_reads::.l2cache.prefetcher            2                       # Number of read requests responded to by this memory
system.mem_ctrl.num_reads::total                  381                       # Number of read requests responded to by this memory
system.mem_ctrl.num_writes::.writebacks            22                       # Number of write requests responded to by this memory
system.mem_ctrl.num_writes::total                  22                       # Number of write requests responded to by this memory
system.mem_ctrl.bw_read::.cpu.inst          536040146                       # Total read bandwidth from this memory (bytes/s)
system.mem_ctrl.bw_read::.cpu.data          260036496                       # Total read bandwidth from this memory (bytes/s)
system.mem_ctrl.bw_read::.cpu.dcache.prefetcher     68430657                       # Total read bandwidth from this memory (bytes/s)
system.mem_ctrl.bw_read::.l2cache.prefetcher      4562044                       # Total read bandwidth from this memory (bytes/s)
system.mem_ctrl.bw_read::total              869069343                       # Total read bandwidth from this memory (bytes/s)
system.mem_ctrl.bw_inst_read::.cpu.inst     536040146                       # Instruction read bandwidth from this memory (bytes/s)
system.mem_ctrl.bw_inst_read::total         536040146                       # Instruction read bandwidth from this memory (bytes/s)
system.mem_ctrl.bw_write::.writebacks        50182482                       # Write bandwidth from this memory (bytes/s)
system.mem_ctrl.bw_write::total              50182482                       # Write bandwidth from this memory (bytes/s)
system.mem_ctrl.bw_total::.writebacks        50182482                       # Total bandwidth to/from this memory (bytes/s)
system.mem_ctrl.bw_total::.cpu.inst         536040146                       # Total bandwidth to/from this memory (bytes/s)
system.mem_ctrl.bw_total::.cpu.data         260036496                       # Total bandwidth to/from this memory (bytes/s)
system.mem_ctrl.bw_total::.cpu.dcache.prefetcher     68430657                       # Total bandwidth to/from this memory (bytes/s)
system.mem_ctrl.bw_total::.l2cache.prefetcher      4562044                       # Total bandwidth to/from this memory (bytes/s)
system.mem_ctrl.bw_total::total             919251825                       # Total bandwidth to/from this memory (bytes/s)

---------- End Simulation Statistics   ----------
