
---------- Begin Simulation Statistics ----------
final_tick                                 1074082000                       # Number of ticks from beginning of simulation (restored from checkpoints and never reset)
host_inst_rate                                 174616                       # Simulator instruction rate (inst/s)
host_mem_usage                                4402728                       # Number of bytes of host memory used
host_op_rate                                   303474                       # Simulator op (including micro ops) rate (op/s)
host_seconds                                    11.61                       # Real time elapsed on the host
host_tick_rate                               92513512                       # Simulator tick rate (ticks/s)
sim_freq                                 1000000000000                       # Frequency of simulated ticks
sim_insts                                     2027280                       # Number of instructions simulated
sim_ops                                       3523328                       # Number of ops (including micro ops) simulated
sim_seconds                                  0.001074                       # Number of seconds simulated
sim_ticks                                  1074082000                       # Number of ticks simulated
system.cpu.branchPred.BTBCorrect                    0                       # Number of correct BTB predictions (this stat may not work properly.
system.cpu.branchPred.BTBHitPct              0.000000                       # BTB Hit Percentage
system.cpu.branchPred.BTBHits                       0                       # Number of BTB hits
system.cpu.branchPred.BTBLookups               425312                       # Number of BTB lookups
system.cpu.branchPred.RASInCorrect                  5                       # Number of incorrect RAS predictions.
system.cpu.branchPred.condIncorrect             23972                       # Number of conditional branches incorrect
system.cpu.branchPred.condPredicted            454974                       # Number of conditional branches predicted
system.cpu.branchPred.indirectHits             234848                       # Number of indirect target hits.
system.cpu.branchPred.indirectLookups          425312                       # Number of indirect predictor lookups.
system.cpu.branchPred.indirectMisses           190464                       # Number of indirect misses.
system.cpu.branchPred.lookups                  480376                       # Number of BP lookups
system.cpu.branchPred.usedRAS                   10943                       # Number of times the RAS was used to get a target.
system.cpu.branchPredindirectMispredicted        11825                       # Number of mispredicted indirect branches.
system.cpu.cc_regfile_reads                   2333247                       # number of cc regfile reads
system.cpu.cc_regfile_writes                  1901353                       # number of cc regfile writes
system.cpu.commit.amos                              0                       # Number of atomic instructions committed
system.cpu.commit.branchMispredicts             24054                       # The number of times a branch was mispredicted
system.cpu.commit.branches                     339638                       # Number of branches committed
system.cpu.commit.bw_lim_events                587377                       # number cycles where commit BW limit reached
system.cpu.commit.commitNonSpecStalls             732                       # The number of times commit has been forced to stall to communicate backwards
system.cpu.commit.commitSquashedInsts          872101                       # The number of squashed insts skipped by commit
system.cpu.commit.committedInsts              2027280                       # Number of instructions committed
system.cpu.commit.committedOps                3523328                       # Number of ops (including micro ops) committed
system.cpu.commit.committed_per_cycle::samples      2299029                       # Number of insts commited each cycle
system.cpu.commit.committed_per_cycle::mean     1.532529                       # Number of insts commited each cycle
system.cpu.commit.committed_per_cycle::stdev     1.726290                       # Number of insts commited each cycle
system.cpu.commit.committed_per_cycle::underflows            0      0.00%      0.00% # Number of insts commited each cycle
system.cpu.commit.committed_per_cycle::0      1152594     50.13%     50.13% # Number of insts commited each cycle
system.cpu.commit.committed_per_cycle::1       169048      7.35%     57.49% # Number of insts commited each cycle
system.cpu.commit.committed_per_cycle::2       165258      7.19%     64.68% # Number of insts commited each cycle
system.cpu.commit.committed_per_cycle::3       224752      9.78%     74.45% # Number of insts commited each cycle
system.cpu.commit.committed_per_cycle::4       587377     25.55%    100.00% # Number of insts commited each cycle
system.cpu.commit.committed_per_cycle::overflows            0      0.00%    100.00% # Number of insts commited each cycle
system.cpu.commit.committed_per_cycle::min_value            0                       # Number of insts commited each cycle
system.cpu.commit.committed_per_cycle::max_value            4                       # Number of insts commited each cycle
system.cpu.commit.committed_per_cycle::total      2299029                       # Number of insts commited each cycle
system.cpu.commit.fp_insts                      73287                       # Number of committed floating point instructions.
system.cpu.commit.function_calls                 9078                       # Number of function calls committed.
system.cpu.commit.int_insts                   3468650                       # Number of committed integer instructions.
system.cpu.commit.loads                        484874                       # Number of loads committed
system.cpu.commit.membars                           1                       # Number of memory barriers committed
system.cpu.commit.op_class_0::No_OpClass        20328      0.58%      0.58% # Class of committed instruction
system.cpu.commit.op_class_0::IntAlu          2771618     78.66%     79.24% # Class of committed instruction
system.cpu.commit.op_class_0::IntMult              27      0.00%     79.24% # Class of committed instruction
system.cpu.commit.op_class_0::IntDiv            37640      1.07%     80.31% # Class of committed instruction
system.cpu.commit.op_class_0::FloatAdd           2861      0.08%     80.39% # Class of committed instruction
system.cpu.commit.op_class_0::FloatCmp              0      0.00%     80.39% # Class of committed instruction
system.cpu.commit.op_class_0::FloatCvt           1200      0.03%     80.43% # Class of committed instruction
system.cpu.commit.op_class_0::FloatMult             0      0.00%     80.43% # Class of committed instruction
system.cpu.commit.op_class_0::FloatMultAcc            0      0.00%     80.43% # Class of committed instruction
system.cpu.commit.op_class_0::FloatDiv              0      0.00%     80.43% # Class of committed instruction
system.cpu.commit.op_class_0::FloatMisc             0      0.00%     80.43% # Class of committed instruction
system.cpu.commit.op_class_0::FloatSqrt             0      0.00%     80.43% # Class of committed instruction
system.cpu.commit.op_class_0::SimdAdd            6218      0.18%     80.60% # Class of committed instruction
system.cpu.commit.op_class_0::SimdAddAcc            0      0.00%     80.60% # Class of committed instruction
system.cpu.commit.op_class_0::SimdAlu           11196      0.32%     80.92% # Class of committed instruction
system.cpu.commit.op_class_0::SimdCmp               0      0.00%     80.92% # Class of committed instruction
system.cpu.commit.op_class_0::SimdCvt           12118      0.34%     81.26% # Class of committed instruction
system.cpu.commit.op_class_0::SimdMisc           6513      0.18%     81.45% # Class of committed instruction
system.cpu.commit.op_class_0::SimdMult              0      0.00%     81.45% # Class of committed instruction
system.cpu.commit.op_class_0::SimdMultAcc            0      0.00%     81.45% # Class of committed instruction
system.cpu.commit.op_class_0::SimdShift          1153      0.03%     81.48% # Class of committed instruction
system.cpu.commit.op_class_0::SimdShiftAcc            0      0.00%     81.48% # Class of committed instruction
system.cpu.commit.op_class_0::SimdDiv               0      0.00%     81.48% # Class of committed instruction
system.cpu.commit.op_class_0::SimdSqrt              0      0.00%     81.48% # Class of committed instruction
system.cpu.commit.op_class_0::SimdFloatAdd            0      0.00%     81.48% # Class of committed instruction
system.cpu.commit.op_class_0::SimdFloatAlu            0      0.00%     81.48% # Class of committed instruction
system.cpu.commit.op_class_0::SimdFloatCmp            0      0.00%     81.48% # Class of committed instruction
system.cpu.commit.op_class_0::SimdFloatCvt            0      0.00%     81.48% # Class of committed instruction
system.cpu.commit.op_class_0::SimdFloatDiv            0      0.00%     81.48% # Class of committed instruction
system.cpu.commit.op_class_0::SimdFloatMisc            0      0.00%     81.48% # Class of committed instruction
system.cpu.commit.op_class_0::SimdFloatMult            0      0.00%     81.48% # Class of committed instruction
system.cpu.commit.op_class_0::SimdFloatMultAcc            0      0.00%     81.48% # Class of committed instruction
system.cpu.commit.op_class_0::SimdFloatSqrt            0      0.00%     81.48% # Class of committed instruction
system.cpu.commit.op_class_0::SimdReduceAdd            0      0.00%     81.48% # Class of committed instruction
system.cpu.commit.op_class_0::SimdReduceAlu            0      0.00%     81.48% # Class of committed instruction
system.cpu.commit.op_class_0::SimdReduceCmp            0      0.00%     81.48% # Class of committed instruction
system.cpu.commit.op_class_0::SimdFloatReduceAdd            0      0.00%     81.48% # Class of committed instruction
system.cpu.commit.op_class_0::SimdFloatReduceCmp            0      0.00%     81.48% # Class of committed instruction
system.cpu.commit.op_class_0::SimdAes               0      0.00%     81.48% # Class of committed instruction
system.cpu.commit.op_class_0::SimdAesMix            0      0.00%     81.48% # Class of committed instruction
system.cpu.commit.op_class_0::SimdSha1Hash            0      0.00%     81.48% # Class of committed instruction
system.cpu.commit.op_class_0::SimdSha1Hash2            0      0.00%     81.48% # Class of committed instruction
system.cpu.commit.op_class_0::SimdSha256Hash            0      0.00%     81.48% # Class of committed instruction
system.cpu.commit.op_class_0::SimdSha256Hash2            0      0.00%     81.48% # Class of committed instruction
system.cpu.commit.op_class_0::SimdShaSigma2            0      0.00%     81.48% # Class of committed instruction
system.cpu.commit.op_class_0::SimdShaSigma3            0      0.00%     81.48% # Class of committed instruction
system.cpu.commit.op_class_0::SimdPredAlu            0      0.00%     81.48% # Class of committed instruction
system.cpu.commit.op_class_0::MemRead          465746     13.22%     94.70% # Class of committed instruction
system.cpu.commit.op_class_0::MemWrite         155509      4.41%     99.11% # Class of committed instruction
system.cpu.commit.op_class_0::FloatMemRead        19128      0.54%     99.66% # Class of committed instruction
system.cpu.commit.op_class_0::FloatMemWrite        12073      0.34%    100.00% # Class of committed instruction
system.cpu.commit.op_class_0::IprAccess             0      0.00%    100.00% # Class of committed instruction
system.cpu.commit.op_class_0::InstPrefetch            0      0.00%    100.00% # Class of committed instruction
system.cpu.commit.op_class_0::total           3523328                       # Class of committed instruction
system.cpu.commit.refs                         652456                       # Number of memory references committed
system.cpu.commit.swp_count                         0                       # Number of s/w prefetches committed
system.cpu.commit.vec_insts                         0                       # Number of committed Vector instructions.
system.cpu.committedInsts                     2027280                       # Number of Instructions Simulated
system.cpu.committedOps                       3523328                       # Number of Ops (including micro ops) Simulated
system.cpu.cpi                               1.324536                       # CPI: Cycles Per Instruction
system.cpu.cpi_total                         1.324536                       # CPI: Total CPI of All Threads
system.cpu.dcache.prefetcher.num_hwpf_issued         7965                       # number of hwpf issued
system.cpu.dcache.prefetcher.pfBufferHit        34828                       # number of redundant prefetches already in prefetch queue
system.cpu.dcache.prefetcher.pfIdentified        49510                       # number of prefetch candidates identified
system.cpu.dcache.prefetcher.pfInCache              0                       # number of redundant prefetches already in cache/mshr dropped
system.cpu.dcache.prefetcher.pfRemovedFull            0                       # number of prefetches dropped due to prefetch queue size
system.cpu.dcache.prefetcher.pfSpanPage          4526                       # number of prefetches that crossed the page
system.cpu.decode.BlockedCycles               1018918                       # Number of cycles decode is blocked
system.cpu.decode.DecodedInsts                4607907                       # Number of instructions handled by decode
system.cpu.decode.IdleCycles                   287899                       # Number of cycles decode is idle
system.cpu.decode.RunCycles                   1120659                       # Number of cycles decode is running
system.cpu.decode.SquashCycles                  24111                       # Number of cycles decode is squashing
system.cpu.decode.UnblockCycles                 85536                       # Number of cycles decode is unblocking
system.cpu.dtb.rdAccesses                      567571                       # TLB accesses on read requests
system.cpu.dtb.rdMisses                          1822                       # TLB misses on read requests
system.cpu.dtb.wrAccesses                      187701                       # TLB accesses on write requests
system.cpu.dtb.wrMisses                           163                       # TLB misses on write requests
system.cpu.fetch.Branches                      480376                       # Number of branches that fetch encountered
system.cpu.fetch.CacheLines                    236176                       # Number of cache lines fetched
system.cpu.fetch.Cycles                       2189394                       # Number of cycles fetch has run and was not squashing or blocked
system.cpu.fetch.IcacheSquashes                  4643                       # Number of outstanding Icache misses that were squashed
system.cpu.fetch.IcacheWaitRetryStallCycles           17                       # Number of stall cycles due to full MSHR
system.cpu.fetch.Insts                        2784869                       # Number of instructions fetch has processed
system.cpu.fetch.MiscStallCycles                   90                       # Number of cycles fetch has spent waiting on interrupts, or bad addresses, or out of MSHRs
system.cpu.fetch.PendingQuiesceStallCycles            6                       # Number of stall cycles due to pending quiesce instructions
system.cpu.fetch.PendingTrapStallCycles           613                       # Number of stall cycles due to pending traps
system.cpu.fetch.SquashCycles                   48222                       # Number of cycles fetch has spent squashing
system.cpu.fetch.branchRate                  0.178897                       # Number of branch fetches per cycle
system.cpu.fetch.icacheStallCycles             322892                       # Number of cycles fetch is stalled on an Icache miss
system.cpu.fetch.predictedBranches             245791                       # Number of branches that fetch has predicted taken
system.cpu.fetch.rate                        1.037116                       # Number of inst fetches per cycle
system.cpu.fetch.rateDist::samples            2537123                       # Number of instructions fetched each cycle (Total)
system.cpu.fetch.rateDist::mean              1.922563                       # Number of instructions fetched each cycle (Total)
system.cpu.fetch.rateDist::stdev             1.931221                       # Number of instructions fetched each cycle (Total)
system.cpu.fetch.rateDist::underflows               0      0.00%      0.00% # Number of instructions fetched each cycle (Total)
system.cpu.fetch.rateDist::0                  1216346     47.94%     47.94% # Number of instructions fetched each cycle (Total)
system.cpu.fetch.rateDist::1                    71768      2.83%     50.77% # Number of instructions fetched each cycle (Total)
system.cpu.fetch.rateDist::2                    57295      2.26%     53.03% # Number of instructions fetched each cycle (Total)
system.cpu.fetch.rateDist::3                    75436      2.97%     56.00% # Number of instructions fetched each cycle (Total)
system.cpu.fetch.rateDist::4                  1116278     44.00%    100.00% # Number of instructions fetched each cycle (Total)
system.cpu.fetch.rateDist::overflows                0      0.00%    100.00% # Number of instructions fetched each cycle (Total)
system.cpu.fetch.rateDist::min_value                0                       # Number of instructions fetched each cycle (Total)
system.cpu.fetch.rateDist::max_value                4                       # Number of instructions fetched each cycle (Total)
system.cpu.fetch.rateDist::total              2537123                       # Number of instructions fetched each cycle (Total)
system.cpu.fp_regfile_reads                    119962                       # number of floating regfile reads
system.cpu.fp_regfile_writes                    65925                       # number of floating regfile writes
system.cpu.fuPool.fu_ticks_busy::IntALU(0)    213138800                       # Total ticks fu was busy
system.cpu.fuPool.fu_ticks_busy::IntALU(1)    213138800                       # Total ticks fu was busy
system.cpu.fuPool.fu_ticks_busy::IntALU(2)    213138800                       # Total ticks fu was busy
system.cpu.fuPool.fu_ticks_busy::IntALU(3)    213138800                       # Total ticks fu was busy
system.cpu.fuPool.fu_ticks_busy::IntALU(4)    213138800                       # Total ticks fu was busy
system.cpu.fuPool.fu_ticks_busy::IntALU(5)    213138400                       # Total ticks fu was busy
system.cpu.fuPool.fu_ticks_busy::IntMultDiv(0)      8262000                       # Total ticks fu was busy
system.cpu.fuPool.fu_ticks_busy::IntMultDiv(1)      8261200                       # Total ticks fu was busy
system.cpu.fuPool.fu_ticks_busy::FP_ALU(0)       574400                       # Total ticks fu was busy
system.cpu.fuPool.fu_ticks_busy::FP_ALU(1)       574400                       # Total ticks fu was busy
system.cpu.fuPool.fu_ticks_busy::FP_ALU(2)       574400                       # Total ticks fu was busy
system.cpu.fuPool.fu_ticks_busy::FP_ALU(3)       574400                       # Total ticks fu was busy
system.cpu.fuPool.fu_ticks_busy::FP_MultDiv(0)            0                       # Total ticks fu was busy
system.cpu.fuPool.fu_ticks_busy::FP_MultDiv(1)            0                       # Total ticks fu was busy
system.cpu.fuPool.fu_ticks_busy::SIMD_Unit(0)      4510400                       # Total ticks fu was busy
system.cpu.fuPool.fu_ticks_busy::SIMD_Unit(1)      4474000                       # Total ticks fu was busy
system.cpu.fuPool.fu_ticks_busy::SIMD_Unit(2)      4477200                       # Total ticks fu was busy
system.cpu.fuPool.fu_ticks_busy::SIMD_Unit(3)      4510000                       # Total ticks fu was busy
system.cpu.fuPool.fu_ticks_busy::PredALU(0)            0                       # Total ticks fu was busy
system.cpu.fuPool.fu_ticks_busy::RdWrPort(0)     76986000                       # Total ticks fu was busy
system.cpu.fuPool.fu_ticks_busy::RdWrPort(1)     76964800                       # Total ticks fu was busy
system.cpu.fuPool.fu_ticks_busy::RdWrPort(2)     76972400                       # Total ticks fu was busy
system.cpu.fuPool.fu_ticks_busy::RdWrPort(3)     76936400                       # Total ticks fu was busy
system.cpu.fuPool.fu_ticks_busy::IprPort(0)            0                       # Total ticks fu was busy
system.cpu.fuPool.fu_ticks_busy::total     1623484400                       # Total ticks fu was busy
system.cpu.icache.prefetcher.num_hwpf_issued            0                       # number of hwpf issued
system.cpu.icache.prefetcher.pfBufferHit            0                       # number of redundant prefetches already in prefetch queue
system.cpu.icache.prefetcher.pfIdentified            0                       # number of prefetch candidates identified
system.cpu.icache.prefetcher.pfInCache              0                       # number of redundant prefetches already in cache/mshr dropped
system.cpu.icache.prefetcher.pfRemovedFull            0                       # number of prefetches dropped due to prefetch queue size
system.cpu.icache.prefetcher.pfSpanPage             0                       # number of prefetches that crossed the page
system.cpu.idleCycles                          148083                       # Total number of cycles that the CPU has spent unscheduled due to idling
system.cpu.iew.branchMispredicts                28405                       # Number of branch mispredicts detected at execute
system.cpu.iew.exec_branches                   369979                       # Number of branches executed
system.cpu.iew.exec_nop                             0                       # number of nop insts executed
system.cpu.iew.exec_rate                     1.508705                       # Inst execution rate
system.cpu.iew.exec_refs                       757059                       # number of memory reference insts executed
system.cpu.iew.exec_stores                     187688                       # Number of stores executed
system.cpu.iew.exec_swp                             0                       # number of swp insts executed
system.cpu.iew.iewBlockCycles                  688902                       # Number of cycles IEW is blocking
system.cpu.iew.iewDispLoadInsts                598905                       # Number of dispatched load instructions
system.cpu.iew.iewDispNonSpecInsts                925                       # Number of dispatched non-speculative instructions
system.cpu.iew.iewDispSquashedInsts               562                       # Number of squashed instructions skipped by dispatch
system.cpu.iew.iewDispStoreInsts               197982                       # Number of dispatched store instructions
system.cpu.iew.iewDispatchedInsts             4395390                       # Number of instructions dispatched to IQ
system.cpu.iew.iewExecLoadInsts                569371                       # Number of load instructions executed
system.cpu.iew.iewExecSquashedInsts             33814                       # Number of squashed instructions skipped in execute
system.cpu.iew.iewExecutedInsts               4051184                       # Number of executed instructions
system.cpu.iew.iewIQFullEvents                   3187                       # Number of times the IQ has become full, causing a stall
system.cpu.iew.iewIdleCycles                        0                       # Number of cycles IEW is idle
system.cpu.iew.iewLSQFullEvents                  9135                       # Number of times the LSQ has become full, causing a stall
system.cpu.iew.iewSquashCycles                  24111                       # Number of cycles IEW is squashing
system.cpu.iew.iewUnblockCycles                 15104                       # Number of cycles IEW is unblocking
system.cpu.iew.lsq.thread0.blockedLoads             0                       # Number of blocked loads due to partial load-store forwarding
system.cpu.iew.lsq.thread0.cacheBlocked           614                       # Number of times an access to memory failed due to the cache being blocked
system.cpu.iew.lsq.thread0.forwLoads            39368                       # Number of loads that had data forwarded from stores
system.cpu.iew.lsq.thread0.ignoredResponses          245                       # Number of memory responses ignored because the instruction is squashed
system.cpu.iew.lsq.thread0.invAddrLoads             0                       # Number of loads ignored due to an invalid address
system.cpu.iew.lsq.thread0.invAddrSwpfs             0                       # Number of software prefetches ignored due to an invalid address
system.cpu.iew.lsq.thread0.memOrderViolation           68                       # Number of memory ordering violations
system.cpu.iew.lsq.thread0.rescheduledLoads            0                       # Number of loads that were rescheduled
system.cpu.iew.lsq.thread0.squashedLoads       114029                       # Number of loads squashed
system.cpu.iew.lsq.thread0.squashedStores        30399                       # Number of stores squashed
system.cpu.iew.memOrderViolationEvents             68                       # Number of memory order violations
system.cpu.iew.predictedNotTakenIncorrect        20275                       # Number of branches that were predicted not taken incorrectly
system.cpu.iew.predictedTakenIncorrect           8130                       # Number of branches that were predicted taken incorrectly
system.cpu.iew.wb_consumers                   5681962                       # num instructions consuming a value
system.cpu.iew.wb_count                       4029116                       # cumulative count of insts written-back
system.cpu.iew.wb_fanout                     0.567076                       # average fanout of values written-back
system.cpu.iew.wb_producers                   3222105                       # num instructions producing a value
system.cpu.iew.wb_rate                       1.500487                       # insts written-back per cycle
system.cpu.iew.wb_sent                        4035869                       # cumulative count of insts sent to commit
system.cpu.int_regfile_reads                  6276896                       # number of integer regfile reads
system.cpu.int_regfile_writes                 3479865                       # number of integer regfile writes
system.cpu.ipc                               0.754981                       # IPC: Instructions Per Cycle
system.cpu.ipc_total                         0.754981                       # IPC: Total IPC of All Threads
system.cpu.iq.FU_type_0::No_OpClass             26287      0.64%      0.64% # Type of FU issued
system.cpu.iq.FU_type_0::IntAlu               3197082     78.26%     78.91% # Type of FU issued
system.cpu.iq.FU_type_0::IntMult                   47      0.00%     78.91% # Type of FU issued
system.cpu.iq.FU_type_0::IntDiv                 41261      1.01%     79.92% # Type of FU issued
system.cpu.iq.FU_type_0::FloatAdd                4500      0.11%     80.03% # Type of FU issued
system.cpu.iq.FU_type_0::FloatCmp                   0      0.00%     80.03% # Type of FU issued
system.cpu.iq.FU_type_0::FloatCvt                1244      0.03%     80.06% # Type of FU issued
system.cpu.iq.FU_type_0::FloatMult                  0      0.00%     80.06% # Type of FU issued
system.cpu.iq.FU_type_0::FloatMultAcc               0      0.00%     80.06% # Type of FU issued
system.cpu.iq.FU_type_0::FloatDiv                   0      0.00%     80.06% # Type of FU issued
system.cpu.iq.FU_type_0::FloatMisc                  0      0.00%     80.06% # Type of FU issued
system.cpu.iq.FU_type_0::FloatSqrt                  0      0.00%     80.06% # Type of FU issued
system.cpu.iq.FU_type_0::SimdAdd                 6861      0.17%     80.23% # Type of FU issued
system.cpu.iq.FU_type_0::SimdAddAcc                 0      0.00%     80.23% # Type of FU issued
system.cpu.iq.FU_type_0::SimdAlu                14846      0.36%     80.59% # Type of FU issued
system.cpu.iq.FU_type_0::SimdCmp                    0      0.00%     80.59% # Type of FU issued
system.cpu.iq.FU_type_0::SimdCvt                13886      0.34%     80.93% # Type of FU issued
system.cpu.iq.FU_type_0::SimdMisc                7106      0.17%     81.10% # Type of FU issued
system.cpu.iq.FU_type_0::SimdMult                   0      0.00%     81.10% # Type of FU issued
system.cpu.iq.FU_type_0::SimdMultAcc                0      0.00%     81.10% # Type of FU issued
system.cpu.iq.FU_type_0::SimdShift               2230      0.05%     81.16% # Type of FU issued
system.cpu.iq.FU_type_0::SimdShiftAcc               0      0.00%     81.16% # Type of FU issued
system.cpu.iq.FU_type_0::SimdDiv                    0      0.00%     81.16% # Type of FU issued
system.cpu.iq.FU_type_0::SimdSqrt                   0      0.00%     81.16% # Type of FU issued
system.cpu.iq.FU_type_0::SimdFloatAdd               0      0.00%     81.16% # Type of FU issued
system.cpu.iq.FU_type_0::SimdFloatAlu               0      0.00%     81.16% # Type of FU issued
system.cpu.iq.FU_type_0::SimdFloatCmp               0      0.00%     81.16% # Type of FU issued
system.cpu.iq.FU_type_0::SimdFloatCvt               0      0.00%     81.16% # Type of FU issued
system.cpu.iq.FU_type_0::SimdFloatDiv               0      0.00%     81.16% # Type of FU issued
system.cpu.iq.FU_type_0::SimdFloatMisc              0      0.00%     81.16% # Type of FU issued
system.cpu.iq.FU_type_0::SimdFloatMult              0      0.00%     81.16% # Type of FU issued
system.cpu.iq.FU_type_0::SimdFloatMultAcc            0      0.00%     81.16% # Type of FU issued
system.cpu.iq.FU_type_0::SimdFloatSqrt              0      0.00%     81.16% # Type of FU issued
system.cpu.iq.FU_type_0::SimdReduceAdd              0      0.00%     81.16% # Type of FU issued
system.cpu.iq.FU_type_0::SimdReduceAlu              0      0.00%     81.16% # Type of FU issued
system.cpu.iq.FU_type_0::SimdReduceCmp              0      0.00%     81.16% # Type of FU issued
system.cpu.iq.FU_type_0::SimdFloatReduceAdd            0      0.00%     81.16% # Type of FU issued
system.cpu.iq.FU_type_0::SimdFloatReduceCmp            0      0.00%     81.16% # Type of FU issued
system.cpu.iq.FU_type_0::SimdAes                    0      0.00%     81.16% # Type of FU issued
system.cpu.iq.FU_type_0::SimdAesMix                 0      0.00%     81.16% # Type of FU issued
system.cpu.iq.FU_type_0::SimdSha1Hash               0      0.00%     81.16% # Type of FU issued
system.cpu.iq.FU_type_0::SimdSha1Hash2              0      0.00%     81.16% # Type of FU issued
system.cpu.iq.FU_type_0::SimdSha256Hash             0      0.00%     81.16% # Type of FU issued
system.cpu.iq.FU_type_0::SimdSha256Hash2            0      0.00%     81.16% # Type of FU issued
system.cpu.iq.FU_type_0::SimdShaSigma2              0      0.00%     81.16% # Type of FU issued
system.cpu.iq.FU_type_0::SimdShaSigma3              0      0.00%     81.16% # Type of FU issued
system.cpu.iq.FU_type_0::SimdPredAlu                0      0.00%     81.16% # Type of FU issued
system.cpu.iq.FU_type_0::MemRead               554343     13.57%     94.73% # Type of FU issued
system.cpu.iq.FU_type_0::MemWrite              176866      4.33%     99.06% # Type of FU issued
system.cpu.iq.FU_type_0::FloatMemRead           25020      0.61%     99.67% # Type of FU issued
system.cpu.iq.FU_type_0::FloatMemWrite          13422      0.33%    100.00% # Type of FU issued
system.cpu.iq.FU_type_0::IprAccess                  0      0.00%    100.00% # Type of FU issued
system.cpu.iq.FU_type_0::InstPrefetch               0      0.00%    100.00% # Type of FU issued
system.cpu.iq.FU_type_0::total                4085001                       # Type of FU issued
system.cpu.iq.fp_alu_accesses                   90142                       # Number of floating point alu accesses
system.cpu.iq.fp_inst_queue_reads              181650                       # Number of floating instruction queue reads
system.cpu.iq.fp_inst_queue_wakeup_accesses        86653                       # Number of floating instruction queue wakeup accesses
system.cpu.iq.fp_inst_queue_writes             131101                       # Number of floating instruction queue writes
system.cpu.iq.fu_busy_cnt                           0                       # FU busy when requested
system.cpu.iq.fu_busy_rate                          0                       # FU busy rate (busy events/executed inst)
system.cpu.iq.fu_full::No_OpClass                   0                       # attempts to use FU when none available
system.cpu.iq.fu_full::IntAlu                       0                       # attempts to use FU when none available
system.cpu.iq.fu_full::IntMult                      0                       # attempts to use FU when none available
system.cpu.iq.fu_full::IntDiv                       0                       # attempts to use FU when none available
system.cpu.iq.fu_full::FloatAdd                     0                       # attempts to use FU when none available
system.cpu.iq.fu_full::FloatCmp                     0                       # attempts to use FU when none available
system.cpu.iq.fu_full::FloatCvt                     0                       # attempts to use FU when none available
system.cpu.iq.fu_full::FloatMult                    0                       # attempts to use FU when none available
system.cpu.iq.fu_full::FloatMultAcc                 0                       # attempts to use FU when none available
system.cpu.iq.fu_full::FloatDiv                     0                       # attempts to use FU when none available
system.cpu.iq.fu_full::FloatMisc                    0                       # attempts to use FU when none available
system.cpu.iq.fu_full::FloatSqrt                    0                       # attempts to use FU when none available
system.cpu.iq.fu_full::SimdAdd                      0                       # attempts to use FU when none available
system.cpu.iq.fu_full::SimdAddAcc                   0                       # attempts to use FU when none available
system.cpu.iq.fu_full::SimdAlu                      0                       # attempts to use FU when none available
system.cpu.iq.fu_full::SimdCmp                      0                       # attempts to use FU when none available
system.cpu.iq.fu_full::SimdCvt                      0                       # attempts to use FU when none available
system.cpu.iq.fu_full::SimdMisc                     0                       # attempts to use FU when none available
system.cpu.iq.fu_full::SimdMult                     0                       # attempts to use FU when none available
system.cpu.iq.fu_full::SimdMultAcc                  0                       # attempts to use FU when none available
system.cpu.iq.fu_full::SimdShift                    0                       # attempts to use FU when none available
system.cpu.iq.fu_full::SimdShiftAcc                 0                       # attempts to use FU when none available
system.cpu.iq.fu_full::SimdDiv                      0                       # attempts to use FU when none available
system.cpu.iq.fu_full::SimdSqrt                     0                       # attempts to use FU when none available
system.cpu.iq.fu_full::SimdFloatAdd                 0                       # attempts to use FU when none available
system.cpu.iq.fu_full::SimdFloatAlu                 0                       # attempts to use FU when none available
system.cpu.iq.fu_full::SimdFloatCmp                 0                       # attempts to use FU when none available
system.cpu.iq.fu_full::SimdFloatCvt                 0                       # attempts to use FU when none available
system.cpu.iq.fu_full::SimdFloatDiv                 0                       # attempts to use FU when none available
system.cpu.iq.fu_full::SimdFloatMisc                0                       # attempts to use FU when none available
system.cpu.iq.fu_full::SimdFloatMult                0                       # attempts to use FU when none available
system.cpu.iq.fu_full::SimdFloatMultAcc             0                       # attempts to use FU when none available
system.cpu.iq.fu_full::SimdFloatSqrt                0                       # attempts to use FU when none available
system.cpu.iq.fu_full::SimdReduceAdd                0                       # attempts to use FU when none available
system.cpu.iq.fu_full::SimdReduceAlu                0                       # attempts to use FU when none available
system.cpu.iq.fu_full::SimdReduceCmp                0                       # attempts to use FU when none available
system.cpu.iq.fu_full::SimdFloatReduceAdd            0                       # attempts to use FU when none available
system.cpu.iq.fu_full::SimdFloatReduceCmp            0                       # attempts to use FU when none available
system.cpu.iq.fu_full::SimdAes                      0                       # attempts to use FU when none available
system.cpu.iq.fu_full::SimdAesMix                   0                       # attempts to use FU when none available
system.cpu.iq.fu_full::SimdSha1Hash                 0                       # attempts to use FU when none available
system.cpu.iq.fu_full::SimdSha1Hash2                0                       # attempts to use FU when none available
system.cpu.iq.fu_full::SimdSha256Hash               0                       # attempts to use FU when none available
system.cpu.iq.fu_full::SimdSha256Hash2              0                       # attempts to use FU when none available
system.cpu.iq.fu_full::SimdShaSigma2                0                       # attempts to use FU when none available
system.cpu.iq.fu_full::SimdShaSigma3                0                       # attempts to use FU when none available
system.cpu.iq.fu_full::SimdPredAlu                  0                       # attempts to use FU when none available
system.cpu.iq.fu_full::MemRead                      0                       # attempts to use FU when none available
system.cpu.iq.fu_full::MemWrite                     0                       # attempts to use FU when none available
system.cpu.iq.fu_full::FloatMemRead                 0                       # attempts to use FU when none available
system.cpu.iq.fu_full::FloatMemWrite                0                       # attempts to use FU when none available
system.cpu.iq.fu_full::IprAccess                    0                       # attempts to use FU when none available
system.cpu.iq.fu_full::InstPrefetch                 0                       # attempts to use FU when none available
system.cpu.iq.int_alu_accesses                3968572                       # Number of integer alu accesses
system.cpu.iq.int_inst_queue_reads           10542646                       # Number of integer instruction queue reads
system.cpu.iq.int_inst_queue_wakeup_accesses      3942463                       # Number of integer instruction queue wakeup accesses
system.cpu.iq.int_inst_queue_writes           5136408                       # Number of integer instruction queue writes
system.cpu.iq.iqInstsAdded                    4394278                       # Number of instructions added to the IQ (excludes non-spec)
system.cpu.iq.iqInstsIssued                   4085001                       # Number of instructions issued
system.cpu.iq.iqNonSpecInstsAdded                1112                       # Number of non-speculative instructions added to the IQ
system.cpu.iq.iqSquashedInstsExamined          872051                       # Number of squashed instructions iterated over during squash; mainly for profiling
system.cpu.iq.iqSquashedInstsIssued             17174                       # Number of squashed instructions issued
system.cpu.iq.iqSquashedNonSpecRemoved            380                       # Number of squashed non-spec instructions that were removed
system.cpu.iq.iqSquashedOperandsExamined      1284424                       # Number of squashed operands that are examined and possibly removed from graph
system.cpu.iq.issued_per_cycle::samples       2537123                       # Number of insts issued each cycle
system.cpu.iq.issued_per_cycle::mean         1.610092                       # Number of insts issued each cycle
system.cpu.iq.issued_per_cycle::stdev        1.673200                       # Number of insts issued each cycle
system.cpu.iq.issued_per_cycle::underflows            0      0.00%      0.00% # Number of insts issued each cycle
system.cpu.iq.issued_per_cycle::0             1162335     45.81%     45.81% # Number of insts issued each cycle
system.cpu.iq.issued_per_cycle::1              166713      6.57%     52.38% # Number of insts issued each cycle
system.cpu.iq.issued_per_cycle::2              291158     11.48%     63.86% # Number of insts issued each cycle
system.cpu.iq.issued_per_cycle::3              331696     13.07%     76.93% # Number of insts issued each cycle
system.cpu.iq.issued_per_cycle::4              585221     23.07%    100.00% # Number of insts issued each cycle
system.cpu.iq.issued_per_cycle::overflows            0      0.00%    100.00% # Number of insts issued each cycle
system.cpu.iq.issued_per_cycle::min_value            0                       # Number of insts issued each cycle
system.cpu.iq.issued_per_cycle::max_value            4                       # Number of insts issued each cycle
system.cpu.iq.issued_per_cycle::total         2537123                       # Number of insts issued each cycle
system.cpu.iq.rate                           1.521299                       # Inst issue rate
system.cpu.iq.vec_alu_accesses                      0                       # Number of vector alu accesses
system.cpu.iq.vec_inst_queue_reads                  0                       # Number of vector instruction queue reads
system.cpu.iq.vec_inst_queue_wakeup_accesses            0                       # Number of vector instruction queue wakeup accesses
system.cpu.iq.vec_inst_queue_writes                 0                       # Number of vector instruction queue writes
system.cpu.itb.rdAccesses                           0                       # TLB accesses on read requests
system.cpu.itb.rdMisses                             0                       # TLB misses on read requests
system.cpu.itb.wrAccesses                      236275                       # TLB accesses on write requests
system.cpu.itb.wrMisses                           338                       # TLB misses on write requests
system.cpu.memDep0.conflictingLoads             13671                       # Number of conflicting loads.
system.cpu.memDep0.conflictingStores             3524                       # Number of conflicting stores.
system.cpu.memDep0.insertedLoads               598905                       # Number of loads inserted to the mem dependence unit.
system.cpu.memDep0.insertedStores              197982                       # Number of stores inserted to the mem dependence unit.
system.cpu.misc_regfile_reads                 1530785                       # number of misc regfile reads
system.cpu.misc_regfile_writes                    675                       # number of misc regfile writes
system.cpu.numCycles                          2685206                       # number of cpu cycles simulated
system.cpu.numWorkItemsCompleted                    0                       # number of work items this cpu completed
system.cpu.numWorkItemsStarted                      0                       # number of work items this cpu started
system.cpu.process.numSyscalls                     56                       # Number of system calls
system.cpu.rename.BlockCycles                  836676                       # Number of cycles rename is blocking
system.cpu.rename.CommittedMaps               4829188                       # Number of HB maps that are committed
system.cpu.rename.FullRegisterEvents              137                       # Number of times there has been no free registers
system.cpu.rename.IQFullEvents                  42187                       # Number of times rename has blocked due to IQ full
system.cpu.rename.IdleCycles                   336516                       # Number of cycles rename is idle
system.cpu.rename.LQFullEvents                  16578                       # Number of times rename has blocked due to LQ full
system.cpu.rename.ROBFullEvents                  5425                       # Number of times rename has blocked due to ROB full
system.cpu.rename.RenameLookups              11852207                       # Number of register rename lookups that rename has made
system.cpu.rename.RenamedInsts                4533753                       # Number of instructions processed by rename
system.cpu.rename.RenamedOperands             6196695                       # Number of destination operands rename has renamed
system.cpu.rename.RunCycles                   1149466                       # Number of cycles rename is running
system.cpu.rename.SQFullEvents                  75481                       # Number of times rename has blocked due to SQ full
system.cpu.rename.SquashCycles                  24111                       # Number of cycles rename is squashing
system.cpu.rename.UnblockCycles                170954                       # Number of cycles rename is unblocking
system.cpu.rename.UndoneMaps                  1367484                       # Number of HB maps that are undone due to squashing
system.cpu.rename.fp_rename_lookups            154445                       # Number of floating rename lookups
system.cpu.rename.int_rename_lookups          7197942                       # Number of integer rename lookups
system.cpu.rename.serializeStallCycles          19400                       # count of cycles rename stalled for serializing inst
system.cpu.rename.serializingInsts                867                       # count of serializing insts renamed
system.cpu.rename.skidInsts                    197817                       # count of insts added to the skid buffer
system.cpu.rename.tempSerializingInsts            916                       # count of temporary serializing insts renamed
system.cpu.rob.rob_reads                      6107081                       # The number of ROB reads
system.cpu.rob.rob_writes                     9029892                       # The number of ROB writes
system.cpu.timesIdled                            1502                       # Number of times that the entire CPU went into an idle state and unscheduled itself
system.l2bus.snoop_filter.hit_multi_requests            9                       # Number of requests hitting in the snoop filter with multiple (>1) holders of the requested data.
system.l2bus.snoop_filter.hit_multi_snoops            0                       # Number of snoops hitting in the snoop filter with multiple (>1) holders of the requested data.
system.l2bus.snoop_filter.hit_single_requests        18185                       # Number of requests hitting in the snoop filter with a single holder of the requested data.
system.l2bus.snoop_filter.hit_single_snoops          422                       # Number of snoops hitting in the snoop filter with a single holder of the requested data.
system.l2bus.snoop_filter.tot_requests          37650                       # Total number of requests made to the snoop filter.
system.l2bus.snoop_filter.tot_snoops              422                       # Total number of snoops made to the snoop filter.
system.l2cache.prefetcher.num_hwpf_issued          665                       # number of hwpf issued
system.l2cache.prefetcher.pfBufferHit               0                       # number of redundant prefetches already in prefetch queue
system.l2cache.prefetcher.pfIdentified            665                       # number of prefetch candidates identified
system.l2cache.prefetcher.pfInCache                 0                       # number of redundant prefetches already in cache/mshr dropped
system.l2cache.prefetcher.pfRemovedFull             0                       # number of prefetches dropped due to prefetch queue size
system.l2cache.prefetcher.pfSpanPage              111                       # number of prefetches that crossed the page
system.membus.snoop_filter.hit_multi_requests            0                       # Number of requests hitting in the snoop filter with multiple (>1) holders of the requested data.
system.membus.snoop_filter.hit_multi_snoops            0                       # Number of snoops hitting in the snoop filter with multiple (>1) holders of the requested data.
system.membus.snoop_filter.hit_single_requests         9157                       # Number of requests hitting in the snoop filter with a single holder of the requested data.
system.membus.snoop_filter.hit_single_snoops            0                       # Number of snoops hitting in the snoop filter with a single holder of the requested data.
system.membus.snoop_filter.tot_requests         22435                       # Total number of requests made to the snoop filter.
system.membus.snoop_filter.tot_snoops               0                       # Total number of snoops made to the snoop filter.
system.membus.pwrStateResidencyTicks::UNDEFINED   1074082000                       # Cumulative time (in ticks) in various power states
system.membus.trans_dist::ReadResp              11962                       # Transaction distribution
system.membus.trans_dist::WritebackDirty         1314                       # Transaction distribution
system.membus.trans_dist::CleanEvict             7843                       # Transaction distribution
system.membus.trans_dist::ReadExReq              1316                       # Transaction distribution
system.membus.trans_dist::ReadExResp             1316                       # Transaction distribution
system.membus.trans_dist::ReadSharedReq         11962                       # Transaction distribution
system.membus.pkt_count_system.l2cache.mem_side::system.mem_ctrl.port        35713                       # Packet count per connected master and slave (bytes)
system.membus.pkt_count_system.l2cache.mem_side::total        35713                       # Packet count per connected master and slave (bytes)
system.membus.pkt_count::total                  35713                       # Packet count per connected master and slave (bytes)
system.membus.pkt_size_system.l2cache.mem_side::system.mem_ctrl.port       933888                       # Cumulative packet size per connected master and slave (bytes)
system.membus.pkt_size_system.l2cache.mem_side::total       933888                       # Cumulative packet size per connected master and slave (bytes)
system.membus.pkt_size::total                  933888                       # Cumulative packet size per connected master and slave (bytes)
system.membus.snoops                                0                       # Total snoops (count)
system.membus.snoopTraffic                          0                       # Total snoop traffic (bytes)
system.membus.snoop_fanout::samples             13278                       # Request fanout histogram
system.membus.snoop_fanout::mean                    0                       # Request fanout histogram
system.membus.snoop_fanout::stdev                   0                       # Request fanout histogram
system.membus.snoop_fanout::underflows              0      0.00%      0.00% # Request fanout histogram
system.membus.snoop_fanout::0                   13278    100.00%    100.00% # Request fanout histogram
system.membus.snoop_fanout::1                       0      0.00%    100.00% # Request fanout histogram
system.membus.snoop_fanout::overflows               0      0.00%    100.00% # Request fanout histogram
system.membus.snoop_fanout::min_value               0                       # Request fanout histogram
system.membus.snoop_fanout::max_value               0                       # Request fanout histogram
system.membus.snoop_fanout::total               13278                       # Request fanout histogram
system.membus.reqLayer2.occupancy            11099721                       # Layer occupancy (ticks)
system.membus.reqLayer2.utilization               1.0                       # Layer utilization (%)
system.membus.respLayer0.occupancy           28817979                       # Layer occupancy (ticks)
system.membus.respLayer0.utilization              2.7                       # Layer utilization (%)
system.l2bus.pwrStateResidencyTicks::UNDEFINED   1074082000                       # Cumulative time (in ticks) in various power states
system.l2bus.trans_dist::ReadResp               17416                       # Transaction distribution
system.l2bus.trans_dist::WritebackDirty          4075                       # Transaction distribution
system.l2bus.trans_dist::CleanEvict             23349                       # Transaction distribution
system.l2bus.trans_dist::HardPFReq                950                       # Transaction distribution
system.l2bus.trans_dist::ReadExReq               2049                       # Transaction distribution
system.l2bus.trans_dist::ReadExResp              2049                       # Transaction distribution
system.l2bus.trans_dist::ReadSharedReq          17416                       # Transaction distribution
system.l2bus.pkt_count_system.cpu.icache.mem_side::system.l2cache.cpu_side         7699                       # Packet count per connected master and slave (bytes)
system.l2bus.pkt_count_system.cpu.dcache.mem_side::system.l2cache.cpu_side        49415                       # Packet count per connected master and slave (bytes)
system.l2bus.pkt_count::total                   57114                       # Packet count per connected master and slave (bytes)
system.l2bus.pkt_size_system.cpu.icache.mem_side::system.l2cache.cpu_side       169664                       # Cumulative packet size per connected master and slave (bytes)
system.l2bus.pkt_size_system.cpu.dcache.mem_side::system.l2cache.cpu_side      1252736                       # Cumulative packet size per connected master and slave (bytes)
system.l2bus.pkt_size::total                  1422400                       # Cumulative packet size per connected master and slave (bytes)
system.l2bus.snoops                             10190                       # Total snoops (count)
system.l2bus.snoopTraffic                       84160                       # Total snoop traffic (bytes)
system.l2bus.snoop_fanout::samples              29654                       # Request fanout histogram
system.l2bus.snoop_fanout::mean              0.014534                       # Request fanout histogram
system.l2bus.snoop_fanout::stdev             0.119681                       # Request fanout histogram
system.l2bus.snoop_fanout::underflows               0      0.00%      0.00% # Request fanout histogram
system.l2bus.snoop_fanout::0                    29223     98.55%     98.55% # Request fanout histogram
system.l2bus.snoop_fanout::1                      431      1.45%    100.00% # Request fanout histogram
system.l2bus.snoop_fanout::2                        0      0.00%    100.00% # Request fanout histogram
system.l2bus.snoop_fanout::overflows                0      0.00%    100.00% # Request fanout histogram
system.l2bus.snoop_fanout::min_value                0                       # Request fanout histogram
system.l2bus.snoop_fanout::max_value                1                       # Request fanout histogram
system.l2bus.snoop_fanout::total                29654                       # Request fanout histogram
system.l2bus.respLayer1.occupancy            20176797                       # Layer occupancy (ticks)
system.l2bus.respLayer1.utilization               1.9                       # Layer utilization (%)
system.l2bus.reqLayer0.occupancy             18669535                       # Layer occupancy (ticks)
system.l2bus.reqLayer0.utilization                1.7                       # Layer utilization (%)
system.l2bus.respLayer0.occupancy             3182799                       # Layer occupancy (ticks)
system.l2bus.respLayer0.utilization               0.3                       # Layer utilization (%)
system.clk_domain.clock                           400                       # Clock period in ticks
system.clk_domain.voltage_domain.voltage            1                       # Voltage in Volts
system.cpu.pwrStateResidencyTicks::ON      1074082000                       # Cumulative time (in ticks) in various power states
system.cpu.icache.pwrStateResidencyTicks::UNDEFINED   1074082000                       # Cumulative time (in ticks) in various power states
system.cpu.icache.demand_hits::.cpu.inst       232857                       # number of demand (read+write) hits
system.cpu.icache.demand_hits::total           232857                       # number of demand (read+write) hits
system.cpu.icache.overall_hits::.cpu.inst       232857                       # number of overall hits
system.cpu.icache.overall_hits::total          232857                       # number of overall hits
system.cpu.icache.demand_misses::.cpu.inst         3319                       # number of demand (read+write) misses
system.cpu.icache.demand_misses::total           3319                       # number of demand (read+write) misses
system.cpu.icache.overall_misses::.cpu.inst         3319                       # number of overall misses
system.cpu.icache.overall_misses::total          3319                       # number of overall misses
system.cpu.icache.demand_miss_latency::.cpu.inst    163521599                       # number of demand (read+write) miss cycles
system.cpu.icache.demand_miss_latency::total    163521599                       # number of demand (read+write) miss cycles
system.cpu.icache.overall_miss_latency::.cpu.inst    163521599                       # number of overall miss cycles
system.cpu.icache.overall_miss_latency::total    163521599                       # number of overall miss cycles
system.cpu.icache.demand_accesses::.cpu.inst       236176                       # number of demand (read+write) accesses
system.cpu.icache.demand_accesses::total       236176                       # number of demand (read+write) accesses
system.cpu.icache.overall_accesses::.cpu.inst       236176                       # number of overall (read+write) accesses
system.cpu.icache.overall_accesses::total       236176                       # number of overall (read+write) accesses
system.cpu.icache.demand_miss_rate::.cpu.inst     0.014053                       # miss rate for demand accesses
system.cpu.icache.demand_miss_rate::total     0.014053                       # miss rate for demand accesses
system.cpu.icache.overall_miss_rate::.cpu.inst     0.014053                       # miss rate for overall accesses
system.cpu.icache.overall_miss_rate::total     0.014053                       # miss rate for overall accesses
system.cpu.icache.demand_avg_miss_latency::.cpu.inst 49268.333534                       # average overall miss latency
system.cpu.icache.demand_avg_miss_latency::total 49268.333534                       # average overall miss latency
system.cpu.icache.overall_avg_miss_latency::.cpu.inst 49268.333534                       # average overall miss latency
system.cpu.icache.overall_avg_miss_latency::total 49268.333534                       # average overall miss latency
system.cpu.icache.blocked_cycles::no_mshrs          129                       # number of cycles access was blocked
system.cpu.icache.blocked_cycles::no_targets            0                       # number of cycles access was blocked
system.cpu.icache.blocked::no_mshrs                 3                       # number of cycles access was blocked
system.cpu.icache.blocked::no_targets               0                       # number of cycles access was blocked
system.cpu.icache.avg_blocked_cycles::no_mshrs           43                       # average number of cycles each access was blocked
system.cpu.icache.avg_blocked_cycles::no_targets          nan                       # average number of cycles each access was blocked
system.cpu.icache.demand_mshr_hits::.cpu.inst          667                       # number of demand (read+write) MSHR hits
system.cpu.icache.demand_mshr_hits::total          667                       # number of demand (read+write) MSHR hits
system.cpu.icache.overall_mshr_hits::.cpu.inst          667                       # number of overall MSHR hits
system.cpu.icache.overall_mshr_hits::total          667                       # number of overall MSHR hits
system.cpu.icache.demand_mshr_misses::.cpu.inst         2652                       # number of demand (read+write) MSHR misses
system.cpu.icache.demand_mshr_misses::total         2652                       # number of demand (read+write) MSHR misses
system.cpu.icache.overall_mshr_misses::.cpu.inst         2652                       # number of overall MSHR misses
system.cpu.icache.overall_mshr_misses::total         2652                       # number of overall MSHR misses
system.cpu.icache.demand_mshr_miss_latency::.cpu.inst    131553999                       # number of demand (read+write) MSHR miss cycles
system.cpu.icache.demand_mshr_miss_latency::total    131553999                       # number of demand (read+write) MSHR miss cycles
system.cpu.icache.overall_mshr_miss_latency::.cpu.inst    131553999                       # number of overall MSHR miss cycles
system.cpu.icache.overall_mshr_miss_latency::total    131553999                       # number of overall MSHR miss cycles
system.cpu.icache.demand_mshr_miss_rate::.cpu.inst     0.011229                       # mshr miss rate for demand accesses
system.cpu.icache.demand_mshr_miss_rate::total     0.011229                       # mshr miss rate for demand accesses
system.cpu.icache.overall_mshr_miss_rate::.cpu.inst     0.011229                       # mshr miss rate for overall accesses
system.cpu.icache.overall_mshr_miss_rate::total     0.011229                       # mshr miss rate for overall accesses
system.cpu.icache.demand_avg_mshr_miss_latency::.cpu.inst 49605.580317                       # average overall mshr miss latency
system.cpu.icache.demand_avg_mshr_miss_latency::total 49605.580317                       # average overall mshr miss latency
system.cpu.icache.overall_avg_mshr_miss_latency::.cpu.inst 49605.580317                       # average overall mshr miss latency
system.cpu.icache.overall_avg_mshr_miss_latency::total 49605.580317                       # average overall mshr miss latency
system.cpu.icache.replacements                   2396                       # number of replacements
system.cpu.icache.ReadReq_hits::.cpu.inst       232857                       # number of ReadReq hits
system.cpu.icache.ReadReq_hits::total          232857                       # number of ReadReq hits
system.cpu.icache.ReadReq_misses::.cpu.inst         3319                       # number of ReadReq misses
system.cpu.icache.ReadReq_misses::total          3319                       # number of ReadReq misses
system.cpu.icache.ReadReq_miss_latency::.cpu.inst    163521599                       # number of ReadReq miss cycles
system.cpu.icache.ReadReq_miss_latency::total    163521599                       # number of ReadReq miss cycles
system.cpu.icache.ReadReq_accesses::.cpu.inst       236176                       # number of ReadReq accesses(hits+misses)
system.cpu.icache.ReadReq_accesses::total       236176                       # number of ReadReq accesses(hits+misses)
system.cpu.icache.ReadReq_miss_rate::.cpu.inst     0.014053                       # miss rate for ReadReq accesses
system.cpu.icache.ReadReq_miss_rate::total     0.014053                       # miss rate for ReadReq accesses
system.cpu.icache.ReadReq_avg_miss_latency::.cpu.inst 49268.333534                       # average ReadReq miss latency
system.cpu.icache.ReadReq_avg_miss_latency::total 49268.333534                       # average ReadReq miss latency
system.cpu.icache.ReadReq_mshr_hits::.cpu.inst          667                       # number of ReadReq MSHR hits
system.cpu.icache.ReadReq_mshr_hits::total          667                       # number of ReadReq MSHR hits
system.cpu.icache.ReadReq_mshr_misses::.cpu.inst         2652                       # number of ReadReq MSHR misses
system.cpu.icache.ReadReq_mshr_misses::total         2652                       # number of ReadReq MSHR misses
system.cpu.icache.ReadReq_mshr_miss_latency::.cpu.inst    131553999                       # number of ReadReq MSHR miss cycles
system.cpu.icache.ReadReq_mshr_miss_latency::total    131553999                       # number of ReadReq MSHR miss cycles
system.cpu.icache.ReadReq_mshr_miss_rate::.cpu.inst     0.011229                       # mshr miss rate for ReadReq accesses
system.cpu.icache.ReadReq_mshr_miss_rate::total     0.011229                       # mshr miss rate for ReadReq accesses
system.cpu.icache.ReadReq_avg_mshr_miss_latency::.cpu.inst 49605.580317                       # average ReadReq mshr miss latency
system.cpu.icache.ReadReq_avg_mshr_miss_latency::total 49605.580317                       # average ReadReq mshr miss latency
system.cpu.icache.prefetcher.pwrStateResidencyTicks::UNDEFINED   1074082000                       # Cumulative time (in ticks) in various power states
system.cpu.icache.tags.pwrStateResidencyTicks::UNDEFINED   1074082000                       # Cumulative time (in ticks) in various power states
system.cpu.icache.tags.tagsinuse           253.441038                       # Cycle average of tags in use
system.cpu.icache.tags.total_refs              202791                       # Total number of references to valid blocks.
system.cpu.icache.tags.sampled_refs              2396                       # Sample count of references to valid blocks.
system.cpu.icache.tags.avg_refs             84.637312                       # Average number of references to valid blocks.
system.cpu.icache.tags.warmup_cycle             66400                       # Cycle when the warmup percentage was hit.
system.cpu.icache.tags.occ_blocks::.cpu.inst   253.441038                       # Average occupied blocks per requestor
system.cpu.icache.tags.occ_percent::.cpu.inst     0.990004                       # Average percentage of cache occupancy
system.cpu.icache.tags.occ_percent::total     0.990004                       # Average percentage of cache occupancy
system.cpu.icache.tags.occ_task_id_blocks::1024          256                       # Occupied blocks per task id
system.cpu.icache.tags.age_task_id_blocks_1024::0          116                       # Occupied blocks per task id
system.cpu.icache.tags.age_task_id_blocks_1024::1          121                       # Occupied blocks per task id
system.cpu.icache.tags.age_task_id_blocks_1024::2           19                       # Occupied blocks per task id
system.cpu.icache.tags.occ_task_id_percent::1024            1                       # Percentage of cache occupancy per task id
system.cpu.icache.tags.tag_accesses            475004                       # Number of tag accesses
system.cpu.icache.tags.data_accesses           475004                       # Number of data accesses
system.cpu.dtb.walker.pwrStateResidencyTicks::UNDEFINED   1074082000                       # Cumulative time (in ticks) in various power states
system.cpu.interrupts.clk_domain.clock           6400                       # Clock period in ticks
system.cpu.itb.walker.pwrStateResidencyTicks::UNDEFINED   1074082000                       # Cumulative time (in ticks) in various power states
system.cpu.dcache.pwrStateResidencyTicks::UNDEFINED   1074082000                       # Cumulative time (in ticks) in various power states
system.cpu.dcache.demand_hits::.cpu.data       660129                       # number of demand (read+write) hits
system.cpu.dcache.demand_hits::total           660129                       # number of demand (read+write) hits
system.cpu.dcache.overall_hits::.cpu.data       660129                       # number of overall hits
system.cpu.dcache.overall_hits::total          660129                       # number of overall hits
system.cpu.dcache.demand_misses::.cpu.data        34723                       # number of demand (read+write) misses
system.cpu.dcache.demand_misses::total          34723                       # number of demand (read+write) misses
system.cpu.dcache.overall_misses::.cpu.data        34723                       # number of overall misses
system.cpu.dcache.overall_misses::total         34723                       # number of overall misses
system.cpu.dcache.demand_miss_latency::.cpu.data   1682263999                       # number of demand (read+write) miss cycles
system.cpu.dcache.demand_miss_latency::total   1682263999                       # number of demand (read+write) miss cycles
system.cpu.dcache.overall_miss_latency::.cpu.data   1682263999                       # number of overall miss cycles
system.cpu.dcache.overall_miss_latency::total   1682263999                       # number of overall miss cycles
system.cpu.dcache.demand_accesses::.cpu.data       694852                       # number of demand (read+write) accesses
system.cpu.dcache.demand_accesses::total       694852                       # number of demand (read+write) accesses
system.cpu.dcache.overall_accesses::.cpu.data       694852                       # number of overall (read+write) accesses
system.cpu.dcache.overall_accesses::total       694852                       # number of overall (read+write) accesses
system.cpu.dcache.demand_miss_rate::.cpu.data     0.049972                       # miss rate for demand accesses
system.cpu.dcache.demand_miss_rate::total     0.049972                       # miss rate for demand accesses
system.cpu.dcache.overall_miss_rate::.cpu.data     0.049972                       # miss rate for overall accesses
system.cpu.dcache.overall_miss_rate::total     0.049972                       # miss rate for overall accesses
system.cpu.dcache.demand_avg_miss_latency::.cpu.data 48448.117933                       # average overall miss latency
system.cpu.dcache.demand_avg_miss_latency::total 48448.117933                       # average overall miss latency
system.cpu.dcache.overall_avg_miss_latency::.cpu.data 48448.117933                       # average overall miss latency
system.cpu.dcache.overall_avg_miss_latency::total 48448.117933                       # average overall miss latency
system.cpu.dcache.blocked_cycles::no_mshrs        29969                       # number of cycles access was blocked
system.cpu.dcache.blocked_cycles::no_targets          147                       # number of cycles access was blocked
system.cpu.dcache.blocked::no_mshrs               743                       # number of cycles access was blocked
system.cpu.dcache.blocked::no_targets               2                       # number of cycles access was blocked
system.cpu.dcache.avg_blocked_cycles::no_mshrs    40.335128                       # average number of cycles each access was blocked
system.cpu.dcache.avg_blocked_cycles::no_targets    73.500000                       # average number of cycles each access was blocked
system.cpu.dcache.unused_prefetches              1803                       # number of HardPF blocks evicted w/o reference
system.cpu.dcache.writebacks::.writebacks         2761                       # number of writebacks
system.cpu.dcache.writebacks::total              2761                       # number of writebacks
system.cpu.dcache.demand_mshr_hits::.cpu.data        22173                       # number of demand (read+write) MSHR hits
system.cpu.dcache.demand_mshr_hits::total        22173                       # number of demand (read+write) MSHR hits
system.cpu.dcache.overall_mshr_hits::.cpu.data        22173                       # number of overall MSHR hits
system.cpu.dcache.overall_mshr_hits::total        22173                       # number of overall MSHR hits
system.cpu.dcache.demand_mshr_misses::.cpu.data        12550                       # number of demand (read+write) MSHR misses
system.cpu.dcache.demand_mshr_misses::total        12550                       # number of demand (read+write) MSHR misses
system.cpu.dcache.overall_mshr_misses::.cpu.data        12550                       # number of overall MSHR misses
system.cpu.dcache.overall_mshr_misses::.cpu.dcache.prefetcher         4263                       # number of overall MSHR misses
system.cpu.dcache.overall_mshr_misses::total        16813                       # number of overall MSHR misses
system.cpu.dcache.demand_mshr_miss_latency::.cpu.data    577053599                       # number of demand (read+write) MSHR miss cycles
system.cpu.dcache.demand_mshr_miss_latency::total    577053599                       # number of demand (read+write) MSHR miss cycles
system.cpu.dcache.overall_mshr_miss_latency::.cpu.data    577053599                       # number of overall MSHR miss cycles
system.cpu.dcache.overall_mshr_miss_latency::.cpu.dcache.prefetcher    241795806                       # number of overall MSHR miss cycles
system.cpu.dcache.overall_mshr_miss_latency::total    818849405                       # number of overall MSHR miss cycles
system.cpu.dcache.demand_mshr_miss_rate::.cpu.data     0.018061                       # mshr miss rate for demand accesses
system.cpu.dcache.demand_mshr_miss_rate::total     0.018061                       # mshr miss rate for demand accesses
system.cpu.dcache.overall_mshr_miss_rate::.cpu.data     0.018061                       # mshr miss rate for overall accesses
system.cpu.dcache.overall_mshr_miss_rate::.cpu.dcache.prefetcher          inf                       # mshr miss rate for overall accesses
system.cpu.dcache.overall_mshr_miss_rate::total     0.024197                       # mshr miss rate for overall accesses
system.cpu.dcache.demand_avg_mshr_miss_latency::.cpu.data 45980.366454                       # average overall mshr miss latency
system.cpu.dcache.demand_avg_mshr_miss_latency::total 45980.366454                       # average overall mshr miss latency
system.cpu.dcache.overall_avg_mshr_miss_latency::.cpu.data 45980.366454                       # average overall mshr miss latency
system.cpu.dcache.overall_avg_mshr_miss_latency::.cpu.dcache.prefetcher 56719.635468                       # average overall mshr miss latency
system.cpu.dcache.overall_avg_mshr_miss_latency::total 48703.348897                       # average overall mshr miss latency
system.cpu.dcache.replacements                  15789                       # number of replacements
system.cpu.dcache.ReadReq_hits::.cpu.data       494631                       # number of ReadReq hits
system.cpu.dcache.ReadReq_hits::total          494631                       # number of ReadReq hits
system.cpu.dcache.ReadReq_misses::.cpu.data        32633                       # number of ReadReq misses
system.cpu.dcache.ReadReq_misses::total         32633                       # number of ReadReq misses
system.cpu.dcache.ReadReq_miss_latency::.cpu.data   1578354400                       # number of ReadReq miss cycles
system.cpu.dcache.ReadReq_miss_latency::total   1578354400                       # number of ReadReq miss cycles
system.cpu.dcache.ReadReq_accesses::.cpu.data       527264                       # number of ReadReq accesses(hits+misses)
system.cpu.dcache.ReadReq_accesses::total       527264                       # number of ReadReq accesses(hits+misses)
system.cpu.dcache.ReadReq_miss_rate::.cpu.data     0.061891                       # miss rate for ReadReq accesses
system.cpu.dcache.ReadReq_miss_rate::total     0.061891                       # miss rate for ReadReq accesses
system.cpu.dcache.ReadReq_avg_miss_latency::.cpu.data 48366.818864                       # average ReadReq miss latency
system.cpu.dcache.ReadReq_avg_miss_latency::total 48366.818864                       # average ReadReq miss latency
system.cpu.dcache.ReadReq_mshr_hits::.cpu.data        22132                       # number of ReadReq MSHR hits
system.cpu.dcache.ReadReq_mshr_hits::total        22132                       # number of ReadReq MSHR hits
system.cpu.dcache.ReadReq_mshr_misses::.cpu.data        10501                       # number of ReadReq MSHR misses
system.cpu.dcache.ReadReq_mshr_misses::total        10501                       # number of ReadReq MSHR misses
system.cpu.dcache.ReadReq_mshr_miss_latency::.cpu.data    476942400                       # number of ReadReq MSHR miss cycles
system.cpu.dcache.ReadReq_mshr_miss_latency::total    476942400                       # number of ReadReq MSHR miss cycles
system.cpu.dcache.ReadReq_mshr_miss_rate::.cpu.data     0.019916                       # mshr miss rate for ReadReq accesses
system.cpu.dcache.ReadReq_mshr_miss_rate::total     0.019916                       # mshr miss rate for ReadReq accesses
system.cpu.dcache.ReadReq_avg_mshr_miss_latency::.cpu.data 45418.760118                       # average ReadReq mshr miss latency
system.cpu.dcache.ReadReq_avg_mshr_miss_latency::total 45418.760118                       # average ReadReq mshr miss latency
system.cpu.dcache.WriteReq_hits::.cpu.data       165498                       # number of WriteReq hits
system.cpu.dcache.WriteReq_hits::total         165498                       # number of WriteReq hits
system.cpu.dcache.WriteReq_misses::.cpu.data         2090                       # number of WriteReq misses
system.cpu.dcache.WriteReq_misses::total         2090                       # number of WriteReq misses
system.cpu.dcache.WriteReq_miss_latency::.cpu.data    103909599                       # number of WriteReq miss cycles
system.cpu.dcache.WriteReq_miss_latency::total    103909599                       # number of WriteReq miss cycles
system.cpu.dcache.WriteReq_accesses::.cpu.data       167588                       # number of WriteReq accesses(hits+misses)
system.cpu.dcache.WriteReq_accesses::total       167588                       # number of WriteReq accesses(hits+misses)
system.cpu.dcache.WriteReq_miss_rate::.cpu.data     0.012471                       # miss rate for WriteReq accesses
system.cpu.dcache.WriteReq_miss_rate::total     0.012471                       # miss rate for WriteReq accesses
system.cpu.dcache.WriteReq_avg_miss_latency::.cpu.data 49717.511483                       # average WriteReq miss latency
system.cpu.dcache.WriteReq_avg_miss_latency::total 49717.511483                       # average WriteReq miss latency
system.cpu.dcache.WriteReq_mshr_hits::.cpu.data           41                       # number of WriteReq MSHR hits
system.cpu.dcache.WriteReq_mshr_hits::total           41                       # number of WriteReq MSHR hits
system.cpu.dcache.WriteReq_mshr_misses::.cpu.data         2049                       # number of WriteReq MSHR misses
system.cpu.dcache.WriteReq_mshr_misses::total         2049                       # number of WriteReq MSHR misses
system.cpu.dcache.WriteReq_mshr_miss_latency::.cpu.data    100111199                       # number of WriteReq MSHR miss cycles
[...]
system.l2cache.demand_mshr_miss_rate::.cpu.data     0.417537                       # mshr miss rate for demand accesses
system.l2cache.demand_mshr_miss_rate::.cpu.dcache.prefetcher     0.861538                       # mshr miss rate for demand accesses
system.l2cache.demand_mshr_miss_rate::total     0.570804                       # mshr miss rate for demand accesses
system.l2cache.overall_mshr_miss_rate::.cpu.inst     0.661667                       # mshr miss rate for overall accesses
system.l2cache.overall_mshr_miss_rate::.cpu.data     0.417537                       # mshr miss rate for overall accesses
system.l2cache.overall_mshr_miss_rate::.cpu.dcache.prefetcher     0.861538                       # mshr miss rate for overall accesses
system.l2cache.overall_mshr_miss_rate::.l2cache.prefetcher          inf                       # mshr miss rate for overall accesses
system.l2cache.overall_mshr_miss_rate::total     0.573427                       # mshr miss rate for overall accesses
system.l2cache.demand_avg_mshr_miss_latency::.cpu.inst 59494.206549                       # average overall mshr miss latency
system.l2cache.demand_avg_mshr_miss_latency::.cpu.data        59140                       # average overall mshr miss latency
system.l2cache.demand_avg_mshr_miss_latency::.cpu.dcache.prefetcher 62084.732143                       # average overall mshr miss latency
system.l2cache.demand_avg_mshr_miss_latency::total 59607.879020                       # average overall mshr miss latency
system.l2cache.overall_avg_mshr_miss_latency::.cpu.inst 59494.206549                       # average overall mshr miss latency
system.l2cache.overall_avg_mshr_miss_latency::.cpu.data        59140                       # average overall mshr miss latency
system.l2cache.overall_avg_mshr_miss_latency::.cpu.dcache.prefetcher 62084.732143                       # average overall mshr miss latency
system.l2cache.overall_avg_mshr_miss_latency::.l2cache.prefetcher        59732                       # average overall mshr miss latency
system.l2cache.overall_avg_mshr_miss_latency::total 59608.446646                       # average overall mshr miss latency
system.l2cache.replacements                       661                       # number of replacements
system.l2cache.WritebackDirty_hits::.writebacks          390                       # number of WritebackDirty hits
system.l2cache.WritebackDirty_hits::total          390                       # number of WritebackDirty hits
system.l2cache.WritebackDirty_accesses::.writebacks          390                       # number of WritebackDirty accesses(hits+misses)
system.l2cache.WritebackDirty_accesses::total          390                       # number of WritebackDirty accesses(hits+misses)
system.l2cache.CleanEvict_mshr_misses::.writebacks           22                       # number of CleanEvict MSHR misses
system.l2cache.CleanEvict_mshr_misses::total           22                       # number of CleanEvict MSHR misses
system.l2cache.CleanEvict_mshr_miss_rate::.writebacks          inf                       # mshr miss rate for CleanEvict accesses
system.l2cache.CleanEvict_mshr_miss_rate::total          inf                       # mshr miss rate for CleanEvict accesses
system.l2cache.HardPFReq_mshr_misses::.l2cache.prefetcher            3                       # number of HardPFReq MSHR misses
system.l2cache.HardPFReq_mshr_misses::total            3                       # number of HardPFReq MSHR misses
system.l2cache.HardPFReq_mshr_miss_latency::.l2cache.prefetcher       179196                       # number of HardPFReq MSHR miss cycles
system.l2cache.HardPFReq_mshr_miss_latency::total       179196                       # number of HardPFReq MSHR miss cycles
system.l2cache.HardPFReq_mshr_miss_rate::.l2cache.prefetcher          inf                       # mshr miss rate for HardPFReq accesses
system.l2cache.HardPFReq_mshr_miss_rate::total          inf                       # mshr miss rate for HardPFReq accesses
system.l2cache.HardPFReq_avg_mshr_miss_latency::.l2cache.prefetcher        59732                       # average HardPFReq mshr miss latency
system.l2cache.HardPFReq_avg_mshr_miss_latency::total        59732                       # average HardPFReq mshr miss latency
system.l2cache.ReadExReq_hits::.cpu.data           22                       # number of ReadExReq hits
system.l2cache.ReadExReq_hits::total               22                       # number of ReadExReq hits
system.l2cache.ReadExReq_misses::.cpu.data           24                       # number of ReadExReq misses
system.l2cache.ReadExReq_misses::total             24                       # number of ReadExReq misses
system.l2cache.ReadExReq_miss_latency::.cpu.data      1584400                       # number of ReadExReq miss cycles
system.l2cache.ReadExReq_miss_latency::total      1584400                       # number of ReadExReq miss cycles
system.l2cache.ReadExReq_accesses::.cpu.data           46                       # number of ReadExReq accesses(hits+misses)
system.l2cache.ReadExReq_accesses::total           46                       # number of ReadExReq accesses(hits+misses)
system.l2cache.ReadExReq_miss_rate::.cpu.data     0.521739                       # miss rate for ReadExReq accesses
system.l2cache.ReadExReq_miss_rate::total     0.521739                       # miss rate for ReadExReq accesses
system.l2cache.ReadExReq_avg_miss_latency::.cpu.data 66016.666667                       # average ReadExReq miss latency
system.l2cache.ReadExReq_avg_miss_latency::total 66016.666667                       # average ReadExReq miss latency
system.l2cache.ReadExReq_mshr_misses::.cpu.data           24                       # number of ReadExReq MSHR misses
system.l2cache.ReadExReq_mshr_misses::total           24                       # number of ReadExReq MSHR misses
system.l2cache.ReadExReq_mshr_miss_latency::.cpu.data      1392400                       # number of ReadExReq MSHR miss cycles
system.l2cache.ReadExReq_mshr_miss_latency::total      1392400                       # number of ReadExReq MSHR miss cycles
system.l2cache.ReadExReq_mshr_miss_rate::.cpu.data     0.521739                       # mshr miss rate for ReadExReq accesses
system.l2cache.ReadExReq_mshr_miss_rate::total     0.521739                       # mshr miss rate for ReadExReq accesses
system.l2cache.ReadExReq_avg_mshr_miss_latency::.cpu.data 58016.666667                       # average ReadExReq mshr miss latency
system.l2cache.ReadExReq_avg_mshr_miss_latency::total 58016.666667                       # average ReadExReq mshr miss latency
system.l2cache.ReadSharedReq_hits::.cpu.inst          203                       # number of ReadSharedReq hits
system.l2cache.ReadSharedReq_hits::.cpu.data          256                       # number of ReadSharedReq hits
system.l2cache.ReadSharedReq_hits::.cpu.dcache.prefetcher            9                       # number of ReadSharedReq hits
system.l2cache.ReadSharedReq_hits::total          468                       # number of ReadSharedReq hits
system.l2cache.ReadSharedReq_misses::.cpu.inst          397                       # number of ReadSharedReq misses
system.l2cache.ReadSharedReq_misses::.cpu.data          177                       # number of ReadSharedReq misses
system.l2cache.ReadSharedReq_misses::.cpu.dcache.prefetcher           56                       # number of ReadSharedReq misses
system.l2cache.ReadSharedReq_misses::total          630                       # number of ReadSharedReq misses
system.l2cache.ReadSharedReq_miss_latency::.cpu.inst     26787200                       # number of ReadSharedReq miss cycles
system.l2cache.ReadSharedReq_miss_latency::.cpu.data     11900000                       # number of ReadSharedReq miss cycles
system.l2cache.ReadSharedReq_miss_latency::.cpu.dcache.prefetcher      3924745                       # number of ReadSharedReq miss cycles
system.l2cache.ReadSharedReq_miss_latency::total     42611945                       # number of ReadSharedReq miss cycles
system.l2cache.ReadSharedReq_accesses::.cpu.inst          600                       # number of ReadSharedReq accesses(hits+misses)
system.l2cache.ReadSharedReq_accesses::.cpu.data          433                       # number of ReadSharedReq accesses(hits+misses)
system.l2cache.ReadSharedReq_accesses::.cpu.dcache.prefetcher           65                       # number of ReadSharedReq accesses(hits+misses)
system.l2cache.ReadSharedReq_accesses::total         1098                       # number of ReadSharedReq accesses(hits+misses)
system.l2cache.ReadSharedReq_miss_rate::.cpu.inst     0.661667                       # miss rate for ReadSharedReq accesses
system.l2cache.ReadSharedReq_miss_rate::.cpu.data     0.408776                       # miss rate for ReadSharedReq accesses
system.l2cache.ReadSharedReq_miss_rate::.cpu.dcache.prefetcher     0.861538                       # miss rate for ReadSharedReq accesses
system.l2cache.ReadSharedReq_miss_rate::total     0.573770                       # miss rate for ReadSharedReq accesses
system.l2cache.ReadSharedReq_avg_miss_latency::.cpu.inst 67474.055416                       # average ReadSharedReq miss latency
system.l2cache.ReadSharedReq_avg_miss_latency::.cpu.data 67231.638418                       # average ReadSharedReq miss latency
system.l2cache.ReadSharedReq_avg_miss_latency::.cpu.dcache.prefetcher 70084.732143                       # average ReadSharedReq miss latency
system.l2cache.ReadSharedReq_avg_miss_latency::total 67638.007937                       # average ReadSharedReq miss latency
system.l2cache.ReadSharedReq_mshr_hits::.cpu.data            1                       # number of ReadSharedReq MSHR hits
system.l2cache.ReadSharedReq_mshr_hits::total            1                       # number of ReadSharedReq MSHR hits
system.l2cache.ReadSharedReq_mshr_misses::.cpu.inst          397                       # number of ReadSharedReq MSHR misses
system.l2cache.ReadSharedReq_mshr_misses::.cpu.data          176                       # number of ReadSharedReq MSHR misses
system.l2cache.ReadSharedReq_mshr_misses::.cpu.dcache.prefetcher           56                       # number of ReadSharedReq MSHR misses
system.l2cache.ReadSharedReq_mshr_misses::total          629                       # number of ReadSharedReq MSHR misses
system.l2cache.ReadSharedReq_mshr_miss_latency::.cpu.inst     23619200                       # number of ReadSharedReq MSHR miss cycles
system.l2cache.ReadSharedReq_mshr_miss_latency::.cpu.data     10435600                       # number of ReadSharedReq MSHR miss cycles
system.l2cache.ReadSharedReq_mshr_miss_latency::.cpu.dcache.prefetcher      3476745                       # number of ReadSharedReq MSHR miss cycles
system.l2cache.ReadSharedReq_mshr_miss_latency::total     37531545                       # number of ReadSharedReq MSHR miss cycles
system.l2cache.ReadSharedReq_mshr_miss_rate::.cpu.inst     0.661667                       # mshr miss rate for ReadSharedReq accesses
system.l2cache.ReadSharedReq_mshr_miss_rate::.cpu.data     0.406467                       # mshr miss rate for ReadSharedReq accesses
system.l2cache.ReadSharedReq_mshr_miss_rate::.cpu.dcache.prefetcher     0.861538                       # mshr miss rate for ReadSharedReq accesses
system.l2cache.ReadSharedReq_mshr_miss_rate::total     0.572860                       # mshr miss rate for ReadSharedReq accesses
system.l2cache.ReadSharedReq_avg_mshr_miss_latency::.cpu.inst 59494.206549                       # average ReadSharedReq mshr miss latency
system.l2cache.ReadSharedReq_avg_mshr_miss_latency::.cpu.data 59293.181818                       # average ReadSharedReq mshr miss latency
system.l2cache.ReadSharedReq_avg_mshr_miss_latency::.cpu.dcache.prefetcher 62084.732143                       # average ReadSharedReq mshr miss latency
system.l2cache.ReadSharedReq_avg_mshr_miss_latency::total 59668.593005                       # average ReadSharedReq mshr miss latency
system.l2cache.prefetcher.pwrStateResidencyTicks::UNDEFINED     46884000                       # Cumulative time (in ticks) in various power states
system.l2cache.tags.pwrStateResidencyTicks::UNDEFINED     46884000                       # Cumulative time (in ticks) in various power states
system.l2cache.tags.tagsinuse                    4096                       # Cycle average of tags in use
system.l2cache.tags.total_refs                  14002                       # Total number of references to valid blocks.
system.l2cache.tags.sampled_refs                 4757                       # Sample count of references to valid blocks.
system.l2cache.tags.avg_refs                 2.943452                       # Average number of references to valid blocks.
system.l2cache.tags.warmup_cycle                    0                       # Cycle when the warmup percentage was hit.
system.l2cache.tags.occ_blocks::.writebacks    55.332583                       # Average occupied blocks per requestor
system.l2cache.tags.occ_blocks::.cpu.inst   938.152609                       # Average occupied blocks per requestor
system.l2cache.tags.occ_blocks::.cpu.data  1928.724340                       # Average occupied blocks per requestor
system.l2cache.tags.occ_blocks::.cpu.dcache.prefetcher   745.530303                       # Average occupied blocks per requestor
system.l2cache.tags.occ_blocks::.l2cache.prefetcher   428.260165                       # Average occupied blocks per requestor
system.l2cache.tags.occ_percent::.writebacks     0.013509                       # Average percentage of cache occupancy
system.l2cache.tags.occ_percent::.cpu.inst     0.229041                       # Average percentage of cache occupancy
system.l2cache.tags.occ_percent::.cpu.data     0.470880                       # Average percentage of cache occupancy
system.l2cache.tags.occ_percent::.cpu.dcache.prefetcher     0.182014                       # Average percentage of cache occupancy
system.l2cache.tags.occ_percent::.l2cache.prefetcher     0.104556                       # Average percentage of cache occupancy
system.l2cache.tags.occ_percent::total       1.000000                       # Average percentage of cache occupancy
system.l2cache.tags.occ_task_id_blocks::1022         1098                       # Occupied blocks per task id
system.l2cache.tags.occ_task_id_blocks::1024         2998                       # Occupied blocks per task id
system.l2cache.tags.age_task_id_blocks_1022::0           15                       # Occupied blocks per task id
system.l2cache.tags.age_task_id_blocks_1022::1           44                       # Occupied blocks per task id
system.l2cache.tags.age_task_id_blocks_1022::2           58                       # Occupied blocks per task id
system.l2cache.tags.age_task_id_blocks_1022::3          981                       # Occupied blocks per task id
system.l2cache.tags.age_task_id_blocks_1024::0          183                       # Occupied blocks per task id
system.l2cache.tags.age_task_id_blocks_1024::1          419                       # Occupied blocks per task id
system.l2cache.tags.age_task_id_blocks_1024::2           69                       # Occupied blocks per task id
system.l2cache.tags.age_task_id_blocks_1024::3         2327                       # Occupied blocks per task id
system.l2cache.tags.occ_task_id_percent::1022     0.268066                       # Percentage of cache occupancy per task id
system.l2cache.tags.occ_task_id_percent::1024     0.731934                       # Percentage of cache occupancy per task id
system.l2cache.tags.tag_accesses                18917                       # Number of tag accesses
system.l2cache.tags.data_accesses               18917                       # Number of data accesses
system.mem_ctrl.pwrStateResidencyTicks::UNDEFINED     46884000                       # Cumulative time (in ticks) in various power states
system.mem_ctrl.bytes_read::.cpu.inst           25344                       # Number of bytes read from this memory
system.mem_ctrl.bytes_read::.cpu.data           12800                       # Number of bytes read from this memory
system.mem_ctrl.bytes_read::.cpu.dcache.prefetcher         3584                       # Number of bytes read from this memory
system.mem_ctrl.bytes_read::.l2cache.prefetcher          192                       # Number of bytes read from this memory
system.mem_ctrl.bytes_read::total               41920                       # Number of bytes read from this memory
system.mem_ctrl.bytes_inst_read::.cpu.inst        25344                       # Number of instructions bytes read from this memory
system.mem_ctrl.bytes_inst_read::total          25344                       # Number of instructions bytes read from this memory
system.mem_ctrl.bytes_written::.writebacks         3520                       # Number of bytes written to this memory
system.mem_ctrl.bytes_written::total             3520                       # Number of bytes written to this memory
system.mem_ctrl.num_reads::.cpu.inst              396                       # Number of read requests responded to by this memory
system.mem_ctrl.num_reads::.cpu.data              200                       # Number of read requests responded to by this memory
system.mem_ctrl.num_reads::.cpu.dcache.prefetcher           56                       # Number of read requests responded to by this memory
system.mem_ctrl.num_reads::.l2cache.prefetcher            3                       # Number of read requests responded to by this memory
system.mem_ctrl.num_reads::total                  655                       # Number of read requests responded to by this memory
system.mem_ctrl.num_writes::.writebacks            55                       # Number of write requests responded to by this memory
system.mem_ctrl.num_writes::total                  55                       # Number of write requests responded to by this memory
system.mem_ctrl.bw_read::.cpu.inst          540568211                       # Total read bandwidth from this memory (bytes/s)
system.mem_ctrl.bw_read::.cpu.data          273014248                       # Total read bandwidth from this memory (bytes/s)
system.mem_ctrl.bw_read::.cpu.dcache.prefetcher     76443989                       # Total read bandwidth from this memory (bytes/s)
system.mem_ctrl.bw_read::.l2cache.prefetcher      4095214                       # Total read bandwidth from this memory (bytes/s)
system.mem_ctrl.bw_read::total              894121662                       # Total read bandwidth from this memory (bytes/s)
system.mem_ctrl.bw_inst_read::.cpu.inst     540568211                       # Instruction read bandwidth from this memory (bytes/s)
system.mem_ctrl.bw_inst_read::total         540568211                       # Instruction read bandwidth from this memory (bytes/s)
system.mem_ctrl.bw_write::.writebacks        75078918                       # Write bandwidth from this memory (bytes/s)
system.mem_ctrl.bw_write::total              75078918                       # Write bandwidth from this memory (bytes/s)
system.mem_ctrl.bw_total::.writebacks        75078918                       # Total bandwidth to/from this memory (bytes/s)
system.mem_ctrl.bw_total::.cpu.inst         540568211                       # Total bandwidth to/from this memory (bytes/s)
system.mem_ctrl.bw_total::.cpu.data         273014248                       # Total bandwidth to/from this memory (bytes/s)
system.mem_ctrl.bw_total::.cpu.dcache.prefetcher     76443989                       # Total bandwidth to/from this memory (bytes/s)
system.mem_ctrl.bw_total::.l2cache.prefetcher      4095214                       # Total bandwidth to/from this memory (bytes/s)
system.mem_ctrl.bw_total::total             969200580                       # Total bandwidth to/from this memory (bytes/s)

---------- End Simulation Statistics   ----------
