
---------- Begin Simulation Statistics ----------
final_tick                                 1064668000                       # Number of ticks from beginning of simulation (restored from checkpoints and never reset)
host_inst_rate                                 173525                       # Simulator instruction rate (inst/s)
host_mem_usage                                4402800                       # Number of bytes of host memory used
host_op_rate                                   301479                       # Simulator op (including micro ops) rate (op/s)
host_seconds                                    11.67                       # Real time elapsed on the host
host_tick_rate                               91232823                       # Simulator tick rate (ticks/s)
sim_freq                                 1000000000000                       # Frequency of simulated ticks
sim_insts                                     2024989                       # Number of instructions simulated
sim_ops                                       3518198                       # Number of ops (including micro ops) simulated
sim_seconds                                  0.001065                       # Number of seconds simulated
sim_ticks                                  1064668000                       # Number of ticks simulated
system.cpu.branchPred.BTBCorrect                    0                       # Number of correct BTB predictions (this stat may not work properly.
system.cpu.branchPred.BTBHitPct              0.000000                       # BTB Hit Percentage
system.cpu.branchPred.BTBHits                       0                       # Number of BTB hits
system.cpu.branchPred.BTBLookups               424960                       # Number of BTB lookups
system.cpu.branchPred.RASInCorrect                  7                       # Number of incorrect RAS predictions.
system.cpu.branchPred.condIncorrect             23291                       # Number of conditional branches incorrect
system.cpu.branchPred.condPredicted            452616                       # Number of conditional branches predicted
system.cpu.branchPred.indirectHits             233609                       # Number of indirect target hits.
system.cpu.branchPred.indirectLookups          424960                       # Number of indirect predictor lookups.
system.cpu.branchPred.indirectMisses           191351                       # Number of indirect misses.
system.cpu.branchPred.lookups                  477736                       # Number of BP lookups
system.cpu.branchPred.usedRAS                   10886                       # Number of times the RAS was used to get a target.
system.cpu.branchPredindirectMispredicted        11676                       # Number of mispredicted indirect branches.
system.cpu.cc_regfile_reads                   2321851                       # number of cc regfile reads
system.cpu.cc_regfile_writes                  1896266                       # number of cc regfile writes
system.cpu.commit.amos                              0                       # Number of atomic instructions committed
system.cpu.commit.branchMispredicts             23358                       # The number of times a branch was mispredicted
system.cpu.commit.branches                     339043                       # Number of branches committed
system.cpu.commit.bw_lim_events                587259                       # number cycles where commit BW limit reached
system.cpu.commit.commitNonSpecStalls             732                       # The number of times commit has been forced to stall to communicate backwards
system.cpu.commit.commitSquashedInsts          854331                       # The number of squashed insts skipped by commit
system.cpu.commit.committedInsts              2024989                       # Number of instructions committed
system.cpu.commit.committedOps                3518198                       # Number of ops (including micro ops) committed
system.cpu.commit.committed_per_cycle::samples      2280938                       # Number of insts commited each cycle
system.cpu.commit.committed_per_cycle::mean     1.542435                       # Number of insts commited each cycle
system.cpu.commit.committed_per_cycle::stdev     1.728556                       # Number of insts commited each cycle
system.cpu.commit.committed_per_cycle::underflows            0      0.00%      0.00% # Number of insts commited each cycle
system.cpu.commit.committed_per_cycle::0      1137934     49.89%     49.89% # Number of insts commited each cycle
system.cpu.commit.committed_per_cycle::1       167165      7.33%     57.22% # Number of insts commited each cycle
system.cpu.commit.committed_per_cycle::2       163743      7.18%     64.40% # Number of insts commited each cycle
system.cpu.commit.committed_per_cycle::3       224837      9.86%     74.25% # Number of insts commited each cycle
system.cpu.commit.committed_per_cycle::4       587259     25.75%    100.00% # Number of insts commited each cycle
system.cpu.commit.committed_per_cycle::overflows            0      0.00%    100.00% # Number of insts commited each cycle
system.cpu.commit.committed_per_cycle::min_value            0                       # Number of insts commited each cycle
system.cpu.commit.committed_per_cycle::max_value            4                       # Number of insts commited each cycle
system.cpu.commit.committed_per_cycle::total      2280938                       # Number of insts commited each cycle
system.cpu.commit.fp_insts                      73042                       # Number of committed floating point instructions.
system.cpu.commit.function_calls                 9078                       # Number of function calls committed.
system.cpu.commit.int_insts                   3464062                       # Number of committed integer instructions.
system.cpu.commit.loads                        484402                       # Number of loads committed
system.cpu.commit.membars                           1                       # Number of memory barriers committed
system.cpu.commit.op_class_0::No_OpClass        19983      0.57%      0.57% # Class of committed instruction
system.cpu.commit.op_class_0::IntAlu          2768835     78.70%     79.27% # Class of committed instruction
system.cpu.commit.op_class_0::IntMult              27      0.00%     79.27% # Class of committed instruction
system.cpu.commit.op_class_0::IntDiv            36612      1.04%     80.31% # Class of committed instruction
system.cpu.commit.op_class_0::FloatAdd           2840      0.08%     80.39% # Class of committed instruction
system.cpu.commit.op_class_0::FloatCmp              0      0.00%     80.39% # Class of committed instruction
system.cpu.commit.op_class_0::FloatCvt           1200      0.03%     80.42% # Class of committed instruction
system.cpu.commit.op_class_0::FloatMult             0      0.00%     80.42% # Class of committed instruction
system.cpu.commit.op_class_0::FloatMultAcc            0      0.00%     80.42% # Class of committed instruction
system.cpu.commit.op_class_0::FloatDiv              0      0.00%     80.42% # Class of committed instruction
system.cpu.commit.op_class_0::FloatMisc             0      0.00%     80.42% # Class of committed instruction
system.cpu.commit.op_class_0::FloatSqrt             0      0.00%     80.42% # Class of committed instruction
system.cpu.commit.op_class_0::SimdAdd            6200      0.18%     80.60% # Class of committed instruction
system.cpu.commit.op_class_0::SimdAddAcc            0      0.00%     80.60% # Class of committed instruction
system.cpu.commit.op_class_0::SimdAlu           11151      0.32%     80.92% # Class of committed instruction
system.cpu.commit.op_class_0::SimdCmp               0      0.00%     80.92% # Class of committed instruction
system.cpu.commit.op_class_0::SimdCvt           12082      0.34%     81.26% # Class of committed instruction
system.cpu.commit.op_class_0::SimdMisc           6495      0.18%     81.45% # Class of committed instruction
system.cpu.commit.op_class_0::SimdMult              0      0.00%     81.45% # Class of committed instruction
system.cpu.commit.op_class_0::SimdMultAcc            0      0.00%     81.45% # Class of committed instruction
system.cpu.commit.op_class_0::SimdShift          1100      0.03%     81.48% # Class of committed instruction
system.cpu.commit.op_class_0::SimdShiftAcc            0      0.00%     81.48% # Class of committed instruction
system.cpu.commit.op_class_0::SimdDiv               0      0.00%     81.48% # Class of committed instruction
system.cpu.commit.op_class_0::SimdSqrt              0      0.00%     81.48% # Class of committed instruction
system.cpu.commit.op_class_0::SimdFloatAdd            0      0.00%     81.48% # Class of committed instruction
system.cpu.commit.op_class_0::SimdFloatAlu            0      0.00%     81.48% # Class of committed instruction
system.cpu.commit.op_class_0::SimdFloatCmp            0      0.00%     81.48% # Class of committed instruction
system.cpu.commit.op_class_0::SimdFloatCvt            0      0.00%     81.48% # Class of committed instruction
system.cpu.commit.op_class_0::SimdFloatDiv            0      0.00%     81.48% # Class of committed instruction
system.cpu.commit.op_class_0::SimdFloatMisc            0      0.00%     81.48% # Class of committed instruction
system.cpu.commit.op_class_0::SimdFloatMult            0      0.00%     81.48% # Class of committed instruction
system.cpu.commit.op_class_0::SimdFloatMultAcc            0      0.00%     81.48% # Class of committed instruction
system.cpu.commit.op_class_0::SimdFloatSqrt            0      0.00%     81.48% # Class of committed instruction
system.cpu.commit.op_class_0::SimdReduceAdd            0      0.00%     81.48% # Class of committed instruction
system.cpu.commit.op_class_0::SimdReduceAlu            0      0.00%     81.48% # Class of committed instruction
system.cpu.commit.op_class_0::SimdReduceCmp            0      0.00%     81.48% # Class of committed instruction
system.cpu.commit.op_class_0::SimdFloatReduceAdd            0      0.00%     81.48% # Class of committed instruction
system.cpu.commit.op_class_0::SimdFloatReduceCmp            0      0.00%     81.48% # Class of committed instruction
system.cpu.commit.op_class_0::SimdAes               0      0.00%     81.48% # Class of committed instruction
system.cpu.commit.op_class_0::SimdAesMix            0      0.00%     81.48% # Class of committed instruction
system.cpu.commit.op_class_0::SimdSha1Hash            0      0.00%     81.48% # Class of committed instruction
system.cpu.commit.op_class_0::SimdSha1Hash2            0      0.00%     81.48% # Class of committed instruction
system.cpu.commit.op_class_0::SimdSha256Hash            0      0.00%     81.48% # Class of committed instruction
system.cpu.commit.op_class_0::SimdSha256Hash2            0      0.00%     81.48% # Class of committed instruction
system.cpu.commit.op_class_0::SimdShaSigma2            0      0.00%     81.48% # Class of committed instruction
system.cpu.commit.op_class_0::SimdShaSigma3            0      0.00%     81.48% # Class of committed instruction
system.cpu.commit.op_class_0::SimdPredAlu            0      0.00%     81.48% # Class of committed instruction
system.cpu.commit.op_class_0::MemRead          465326     13.23%     94.70% # Class of committed instruction
system.cpu.commit.op_class_0::MemWrite         155202      4.41%     99.11% # Class of committed instruction
system.cpu.commit.op_class_0::FloatMemRead        19076      0.54%     99.66% # Class of committed instruction
system.cpu.commit.op_class_0::FloatMemWrite        12069      0.34%    100.00% # Class of committed instruction
system.cpu.commit.op_class_0::IprAccess             0      0.00%    100.00% # Class of committed instruction
system.cpu.commit.op_class_0::InstPrefetch            0      0.00%    100.00% # Class of committed instruction
system.cpu.commit.op_class_0::total           3518198                       # Class of committed instruction
system.cpu.commit.refs                         651673                       # Number of memory references committed
system.cpu.commit.swp_count                         0                       # Number of s/w prefetches committed
system.cpu.commit.vec_insts                         0                       # Number of committed Vector instructions.
system.cpu.committedInsts                     2024989                       # Number of Instructions Simulated
system.cpu.committedOps                       3518198                       # Number of Ops (including micro ops) Simulated
system.cpu.cpi                               1.314413                       # CPI: Cycles Per Instruction
system.cpu.cpi_total                         1.314413                       # CPI: Total CPI of All Threads
system.cpu.dcache.prefetcher.num_hwpf_issued         8440                       # number of hwpf issued
system.cpu.dcache.prefetcher.pfBufferHit        35394                       # number of redundant prefetches already in prefetch queue
system.cpu.dcache.prefetcher.pfIdentified        51132                       # number of prefetch candidates identified
system.cpu.dcache.prefetcher.pfInCache              0                       # number of redundant prefetches already in cache/mshr dropped
system.cpu.dcache.prefetcher.pfRemovedFull            0                       # number of prefetches dropped due to prefetch queue size
system.cpu.dcache.prefetcher.pfSpanPage          5028                       # number of prefetches that crossed the page
system.cpu.decode.BlockedCycles               1007706                       # Number of cycles decode is blocked
system.cpu.decode.DecodedInsts                4580296                       # Number of instructions handled by decode
system.cpu.decode.IdleCycles                   283836                       # Number of cycles decode is idle
system.cpu.decode.RunCycles                   1113250                       # Number of cycles decode is running
system.cpu.decode.SquashCycles                  23414                       # Number of cycles decode is squashing
system.cpu.decode.UnblockCycles                 85470                       # Number of cycles decode is unblocking
system.cpu.dtb.rdAccesses                      564328                       # TLB accesses on read requests
system.cpu.dtb.rdMisses                          2161                       # TLB misses on read requests
system.cpu.dtb.wrAccesses                      185622                       # TLB accesses on write requests
system.cpu.dtb.wrMisses                           151                       # TLB misses on write requests
system.cpu.fetch.Branches                      477736                       # Number of branches that fetch encountered
system.cpu.fetch.CacheLines                    232563                       # Number of cache lines fetched
system.cpu.fetch.Cycles                       2171629                       # Number of cycles fetch has run and was not squashing or blocked
system.cpu.fetch.IcacheSquashes                  4317                       # Number of outstanding Icache misses that were squashed
system.cpu.fetch.IcacheWaitRetryStallCycles           17                       # Number of stall cycles due to full MSHR
system.cpu.fetch.Insts                        2766714                       # Number of instructions fetch has processed
system.cpu.fetch.MiscStallCycles                   74                       # Number of cycles fetch has spent waiting on interrupts, or bad addresses, or out of MSHRs
system.cpu.fetch.PendingQuiesceStallCycles           20                       # Number of stall cycles due to pending quiesce instructions
system.cpu.fetch.PendingTrapStallCycles           482                       # Number of stall cycles due to pending traps
system.cpu.fetch.SquashCycles                   46828                       # Number of cycles fetch has spent squashing
system.cpu.fetch.branchRate                  0.179487                       # Number of branch fetches per cycle
system.cpu.fetch.icacheStallCycles             318040                       # Number of cycles fetch is stalled on an Icache miss
system.cpu.fetch.predictedBranches             244495                       # Number of branches that fetch has predicted taken
system.cpu.fetch.rate                        1.039465                       # Number of inst fetches per cycle
system.cpu.fetch.rateDist::samples            2513676                       # Number of instructions fetched each cycle (Total)
system.cpu.fetch.rateDist::mean              1.927800                       # Number of instructions fetched each cycle (Total)
system.cpu.fetch.rateDist::stdev             1.931309                       # Number of instructions fetched each cycle (Total)
system.cpu.fetch.rateDist::underflows               0      0.00%      0.00% # Number of instructions fetched each cycle (Total)
system.cpu.fetch.rateDist::0                  1201701     47.81%     47.81% # Number of instructions fetched each cycle (Total)
system.cpu.fetch.rateDist::1                    71009      2.82%     50.63% # Number of instructions fetched each cycle (Total)
system.cpu.fetch.rateDist::2                    57171      2.27%     52.91% # Number of instructions fetched each cycle (Total)
system.cpu.fetch.rateDist::3                    74667      2.97%     55.88% # Number of instructions fetched each cycle (Total)
system.cpu.fetch.rateDist::4                  1109128     44.12%    100.00% # Number of instructions fetched each cycle (Total)
system.cpu.fetch.rateDist::overflows                0      0.00%    100.00% # Number of instructions fetched each cycle (Total)
system.cpu.fetch.rateDist::min_value                0                       # Number of instructions fetched each cycle (Total)
system.cpu.fetch.rateDist::max_value                4                       # Number of instructions fetched each cycle (Total)
system.cpu.fetch.rateDist::total              2513676                       # Number of instructions fetched each cycle (Total)
system.cpu.fp_regfile_reads                    117537                       # number of floating regfile reads
system.cpu.fp_regfile_writes                    64627                       # number of floating regfile writes
system.cpu.fuPool.fu_ticks_busy::IntALU(0)    212170000                       # Total ticks fu was busy
system.cpu.fuPool.fu_ticks_busy::IntALU(1)    212169600                       # Total ticks fu was busy
system.cpu.fuPool.fu_ticks_busy::IntALU(2)    212169600                       # Total ticks fu was busy
system.cpu.fuPool.fu_ticks_busy::IntALU(3)    212169600                       # Total ticks fu was busy
system.cpu.fuPool.fu_ticks_busy::IntALU(4)    212169600                       # Total ticks fu was busy
system.cpu.fuPool.fu_ticks_busy::IntALU(5)    212169600                       # Total ticks fu was busy
system.cpu.fuPool.fu_ticks_busy::IntMultDiv(0)      8012000                       # Total ticks fu was busy
system.cpu.fuPool.fu_ticks_busy::IntMultDiv(1)      8011600                       # Total ticks fu was busy
system.cpu.fuPool.fu_ticks_busy::FP_ALU(0)       548800                       # Total ticks fu was busy
system.cpu.fuPool.fu_ticks_busy::FP_ALU(1)       548800                       # Total ticks fu was busy
system.cpu.fuPool.fu_ticks_busy::FP_ALU(2)       548800                       # Total ticks fu was busy
system.cpu.fuPool.fu_ticks_busy::FP_ALU(3)       548800                       # Total ticks fu was busy
system.cpu.fuPool.fu_ticks_busy::FP_MultDiv(0)            0                       # Total ticks fu was busy
system.cpu.fuPool.fu_ticks_busy::FP_MultDiv(1)            0                       # Total ticks fu was busy
system.cpu.fuPool.fu_ticks_busy::SIMD_Unit(0)      4364000                       # Total ticks fu was busy
system.cpu.fuPool.fu_ticks_busy::SIMD_Unit(1)      4329600                       # Total ticks fu was busy
system.cpu.fuPool.fu_ticks_busy::SIMD_Unit(2)      4432800                       # Total ticks fu was busy
system.cpu.fuPool.fu_ticks_busy::SIMD_Unit(3)      4461200                       # Total ticks fu was busy
system.cpu.fuPool.fu_ticks_busy::PredALU(0)            0                       # Total ticks fu was busy
system.cpu.fuPool.fu_ticks_busy::RdWrPort(0)     76397200                       # Total ticks fu was busy
system.cpu.fuPool.fu_ticks_busy::RdWrPort(1)     76414400                       # Total ticks fu was busy
system.cpu.fuPool.fu_ticks_busy::RdWrPort(2)     76410800                       # Total ticks fu was busy
system.cpu.fuPool.fu_ticks_busy::RdWrPort(3)     76418400                       # Total ticks fu was busy
system.cpu.fuPool.fu_ticks_busy::IprPort(0)            0                       # Total ticks fu was busy
system.cpu.fuPool.fu_ticks_busy::total     1614465200                       # Total ticks fu was busy
system.cpu.icache.prefetcher.num_hwpf_issued            0                       # number of hwpf issued
system.cpu.icache.prefetcher.pfBufferHit            0                       # number of redundant prefetches already in prefetch queue
system.cpu.icache.prefetcher.pfIdentified            0                       # number of prefetch candidates identified
system.cpu.icache.prefetcher.pfInCache              0                       # number of redundant prefetches already in cache/mshr dropped
system.cpu.icache.prefetcher.pfRemovedFull            0                       # number of prefetches dropped due to prefetch queue size
system.cpu.icache.prefetcher.pfSpanPage             0                       # number of prefetches that crossed the page
system.cpu.idleCycles                          147995                       # Total number of cycles that the CPU has spent unscheduled due to idling
system.cpu.iew.branchMispredicts                27651                       # Number of branch mispredicts detected at execute
system.cpu.iew.exec_branches                   367624                       # Number of branches executed
system.cpu.iew.exec_nop                             0                       # number of nop insts executed
system.cpu.iew.exec_rate                     1.513647                       # Inst execution rate
system.cpu.iew.exec_refs                       751604                       # number of memory reference insts executed
system.cpu.iew.exec_stores                     185614                       # Number of stores executed
system.cpu.iew.exec_swp                             0                       # number of swp insts executed
system.cpu.iew.iewBlockCycles                  684242                       # Number of cycles IEW is blocking
system.cpu.iew.iewDispLoadInsts                595315                       # Number of dispatched load instructions
system.cpu.iew.iewDispNonSpecInsts                917                       # Number of dispatched non-speculative instructions
system.cpu.iew.iewDispSquashedInsts               571                       # Number of squashed instructions skipped by dispatch
system.cpu.iew.iewDispStoreInsts               195502                       # Number of dispatched store instructions
system.cpu.iew.iewDispatchedInsts             4372456                       # Number of instructions dispatched to IQ
system.cpu.iew.iewExecLoadInsts                565990                       # Number of load instructions executed
system.cpu.iew.iewExecSquashedInsts             33195                       # Number of squashed instructions skipped in execute
system.cpu.iew.iewExecutedInsts               4028829                       # Number of executed instructions
system.cpu.iew.iewIQFullEvents                   3291                       # Number of times the IQ has become full, causing a stall
system.cpu.iew.iewIdleCycles                        0                       # Number of cycles IEW is idle
system.cpu.iew.iewLSQFullEvents                  8169                       # Number of times the LSQ has become full, causing a stall
system.cpu.iew.iewSquashCycles                  23414                       # Number of cycles IEW is squashing
system.cpu.iew.iewUnblockCycles                 14323                       # Number of cycles IEW is unblocking
system.cpu.iew.lsq.thread0.blockedLoads             0                       # Number of blocked loads due to partial load-store forwarding
system.cpu.iew.lsq.thread0.cacheBlocked           580                       # Number of times an access to memory failed due to the cache being blocked
system.cpu.iew.lsq.thread0.forwLoads            38783                       # Number of loads that had data forwarded from stores
system.cpu.iew.lsq.thread0.ignoredResponses          231                       # Number of memory responses ignored because the instruction is squashed
system.cpu.iew.lsq.thread0.invAddrLoads             0                       # Number of loads ignored due to an invalid address
system.cpu.iew.lsq.thread0.invAddrSwpfs             0                       # Number of software prefetches ignored due to an invalid address
system.cpu.iew.lsq.thread0.memOrderViolation           69                       # Number of memory ordering violations
system.cpu.iew.lsq.thread0.rescheduledLoads            0                       # Number of loads that were rescheduled
system.cpu.iew.lsq.thread0.squashedLoads       110911                       # Number of loads squashed
system.cpu.iew.lsq.thread0.squashedStores        28230                       # Number of stores squashed
system.cpu.iew.memOrderViolationEvents             69                       # Number of memory order violations
system.cpu.iew.predictedNotTakenIncorrect        19717                       # Number of branches that were predicted not taken incorrectly
system.cpu.iew.predictedTakenIncorrect           7934                       # Number of branches that were predicted taken incorrectly
system.cpu.iew.wb_consumers                   5658933                       # num instructions consuming a value
system.cpu.iew.wb_count                       4007507                       # cumulative count of insts written-back
system.cpu.iew.wb_fanout                     0.566853                       # average fanout of values written-back
system.cpu.iew.wb_producers                   3207785                       # num instructions producing a value
system.cpu.iew.wb_rate                       1.505636                       # insts written-back per cycle
system.cpu.iew.wb_sent                        4014374                       # cumulative count of insts sent to commit
system.cpu.int_regfile_reads                  6240489                       # number of integer regfile reads
system.cpu.int_regfile_writes                 3461457                       # number of integer regfile writes
system.cpu.ipc                               0.760796                       # IPC: Instructions Per Cycle
system.cpu.ipc_total                         0.760796                       # IPC: Total IPC of All Threads
system.cpu.iq.FU_type_0::No_OpClass             25861      0.64%      0.64% # Type of FU issued
system.cpu.iq.FU_type_0::IntAlu               3182546     78.35%     78.99% # Type of FU issued
system.cpu.iq.FU_type_0::IntMult                   52      0.00%     78.99% # Type of FU issued
system.cpu.iq.FU_type_0::IntDiv                 40007      0.98%     79.97% # Type of FU issued
system.cpu.iq.FU_type_0::FloatAdd                4260      0.10%     80.08% # Type of FU issued
system.cpu.iq.FU_type_0::FloatCmp                   0      0.00%     80.08% # Type of FU issued
system.cpu.iq.FU_type_0::FloatCvt                1228      0.03%     80.11% # Type of FU issued
system.cpu.iq.FU_type_0::FloatMult                  0      0.00%     80.11% # Type of FU issued
system.cpu.iq.FU_type_0::FloatMultAcc               0      0.00%     80.11% # Type of FU issued
system.cpu.iq.FU_type_0::FloatDiv                   0      0.00%     80.11% # Type of FU issued
system.cpu.iq.FU_type_0::FloatMisc                  0      0.00%     80.11% # Type of FU issued
system.cpu.iq.FU_type_0::FloatSqrt                  0      0.00%     80.11% # Type of FU issued
system.cpu.iq.FU_type_0::SimdAdd                 6737      0.17%     80.27% # Type of FU issued
system.cpu.iq.FU_type_0::SimdAddAcc                 0      0.00%     80.27% # Type of FU issued
system.cpu.iq.FU_type_0::SimdAlu                14525      0.36%     80.63% # Type of FU issued
system.cpu.iq.FU_type_0::SimdCmp                    0      0.00%     80.63% # Type of FU issued
system.cpu.iq.FU_type_0::SimdCvt                13651      0.34%     80.97% # Type of FU issued
system.cpu.iq.FU_type_0::SimdMisc                6994      0.17%     81.14% # Type of FU issued
system.cpu.iq.FU_type_0::SimdMult                   0      0.00%     81.14% # Type of FU issued
system.cpu.iq.FU_type_0::SimdMultAcc                0      0.00%     81.14% # Type of FU issued
system.cpu.iq.FU_type_0::SimdShift               2062      0.05%     81.19% # Type of FU issued
system.cpu.iq.FU_type_0::SimdShiftAcc               0      0.00%     81.19% # Type of FU issued
system.cpu.iq.FU_type_0::SimdDiv                    0      0.00%     81.19% # Type of FU issued
system.cpu.iq.FU_type_0::SimdSqrt                   0      0.00%     81.19% # Type of FU issued
system.cpu.iq.FU_type_0::SimdFloatAdd               0      0.00%     81.19% # Type of FU issued
system.cpu.iq.FU_type_0::SimdFloatAlu               0      0.00%     81.19% # Type of FU issued
system.cpu.iq.FU_type_0::SimdFloatCmp               0      0.00%     81.19% # Type of FU issued
system.cpu.iq.FU_type_0::SimdFloatCvt               0      0.00%     81.19% # Type of FU issued
system.cpu.iq.FU_type_0::SimdFloatDiv               0      0.00%     81.19% # Type of FU issued
system.cpu.iq.FU_type_0::SimdFloatMisc              0      0.00%     81.19% # Type of FU issued
system.cpu.iq.FU_type_0::SimdFloatMult              0      0.00%     81.19% # Type of FU issued
system.cpu.iq.FU_type_0::SimdFloatMultAcc            0      0.00%     81.19% # Type of FU issued
system.cpu.iq.FU_type_0::SimdFloatSqrt              0      0.00%     81.19% # Type of FU issued
system.cpu.iq.FU_type_0::SimdReduceAdd              0      0.00%     81.19% # Type of FU issued
system.cpu.iq.FU_type_0::SimdReduceAlu              0      0.00%     81.19% # Type of FU issued
system.cpu.iq.FU_type_0::SimdReduceCmp              0      0.00%     81.19% # Type of FU issued
system.cpu.iq.FU_type_0::SimdFloatReduceAdd            0      0.00%     81.19% # Type of FU issued
system.cpu.iq.FU_type_0::SimdFloatReduceCmp            0      0.00%     81.19% # Type of FU issued
system.cpu.iq.FU_type_0::SimdAes                    0      0.00%     81.19% # Type of FU issued
system.cpu.iq.FU_type_0::SimdAesMix                 0      0.00%     81.19% # Type of FU issued
system.cpu.iq.FU_type_0::SimdSha1Hash               0      0.00%     81.19% # Type of FU issued
system.cpu.iq.FU_type_0::SimdSha1Hash2              0      0.00%     81.19% # Type of FU issued
system.cpu.iq.FU_type_0::SimdSha256Hash             0      0.00%     81.19% # Type of FU issued
system.cpu.iq.FU_type_0::SimdSha256Hash2            0      0.00%     81.19% # Type of FU issued
system.cpu.iq.FU_type_0::SimdShaSigma2              0      0.00%     81.19% # Type of FU issued
system.cpu.iq.FU_type_0::SimdShaSigma3              0      0.00%     81.19% # Type of FU issued
system.cpu.iq.FU_type_0::SimdPredAlu                0      0.00%     81.19% # Type of FU issued
system.cpu.iq.FU_type_0::MemRead               551419     13.57%     94.76% # Type of FU issued
system.cpu.iq.FU_type_0::MemWrite              174838      4.30%     99.07% # Type of FU issued
system.cpu.iq.FU_type_0::FloatMemRead           24552      0.60%     99.67% # Type of FU issued
system.cpu.iq.FU_type_0::FloatMemWrite          13295      0.33%    100.00% # Type of FU issued
system.cpu.iq.FU_type_0::IprAccess                  0      0.00%    100.00% # Type of FU issued
system.cpu.iq.FU_type_0::InstPrefetch               0      0.00%    100.00% # Type of FU issued
system.cpu.iq.FU_type_0::total                4062027                       # Type of FU issued
system.cpu.iq.fp_alu_accesses                   88283                       # Number of floating point alu accesses
system.cpu.iq.fp_inst_queue_reads              177937                       # Number of floating instruction queue reads
system.cpu.iq.fp_inst_queue_wakeup_accesses        85138                       # Number of floating instruction queue wakeup accesses
system.cpu.iq.fp_inst_queue_writes             127190                       # Number of floating instruction queue writes
system.cpu.iq.fu_busy_cnt                           0                       # FU busy when requested
system.cpu.iq.fu_busy_rate                          0                       # FU busy rate (busy events/executed inst)
system.cpu.iq.fu_full::No_OpClass                   0                       # attempts to use FU when none available
system.cpu.iq.fu_full::IntAlu                       0                       # attempts to use FU when none available
system.cpu.iq.fu_full::IntMult                      0                       # attempts to use FU when none available
system.cpu.iq.fu_full::IntDiv                       0                       # attempts to use FU when none available
system.cpu.iq.fu_full::FloatAdd                     0                       # attempts to use FU when none available
system.cpu.iq.fu_full::FloatCmp                     0                       # attempts to use FU when none available
system.cpu.iq.fu_full::FloatCvt                     0                       # attempts to use FU when none available
system.cpu.iq.fu_full::FloatMult                    0                       # attempts to use FU when none available
system.cpu.iq.fu_full::FloatMultAcc                 0                       # attempts to use FU when none available
system.cpu.iq.fu_full::FloatDiv                     0                       # attempts to use FU when none available
system.cpu.iq.fu_full::FloatMisc                    0                       # attempts to use FU when none available
system.cpu.iq.fu_full::FloatSqrt                    0                       # attempts to use FU when none available
system.cpu.iq.fu_full::SimdAdd                      0                       # attempts to use FU when none available
system.cpu.iq.fu_full::SimdAddAcc                   0                       # attempts to use FU when none available
system.cpu.iq.fu_full::SimdAlu                      0                       # attempts to use FU when none available
system.cpu.iq.fu_full::SimdCmp                      0                       # attempts to use FU when none available
system.cpu.iq.fu_full::SimdCvt                      0                       # attempts to use FU when none available
system.cpu.iq.fu_full::SimdMisc                     0                       # attempts to use FU when none available
system.cpu.iq.fu_full::SimdMult                     0                       # attempts to use FU when none available
system.cpu.iq.fu_full::SimdMultAcc                  0                       # attempts to use FU when none available
system.cpu.iq.fu_full::SimdShift                    0                       # attempts to use FU when none available
system.cpu.iq.fu_full::SimdShiftAcc                 0                       # attempts to use FU when none available
system.cpu.iq.fu_full::SimdDiv                      0                       # attempts to use FU when none available
system.cpu.iq.fu_full::SimdSqrt                     0                       # attempts to use FU when none available
system.cpu.iq.fu_full::SimdFloatAdd                 0                       # attempts to use FU when none available
system.cpu.iq.fu_full::SimdFloatAlu                 0                       # attempts to use FU when none available
system.cpu.iq.fu_full::SimdFloatCmp                 0                       # attempts to use FU when none available
system.cpu.iq.fu_full::SimdFloatCvt                 0                       # attempts to use FU when none available
system.cpu.iq.fu_full::SimdFloatDiv                 0                       # attempts to use FU when none available
system.cpu.iq.fu_full::SimdFloatMisc                0                       # attempts to use FU when none available
system.cpu.iq.fu_full::SimdFloatMult                0                       # attempts to use FU when none available
system.cpu.iq.fu_full::SimdFloatMultAcc             0                       # attempts to use FU when none available
system.cpu.iq.fu_full::SimdFloatSqrt                0                       # attempts to use FU when none available
system.cpu.iq.fu_full::SimdReduceAdd                0                       # attempts to use FU when none available
system.cpu.iq.fu_full::SimdReduceAlu                0                       # attempts to use FU when none available
system.cpu.iq.fu_full::SimdReduceCmp                0                       # attempts to use FU when none available
system.cpu.iq.fu_full::SimdFloatReduceAdd            0                       # attempts to use FU when none available
system.cpu.iq.fu_full::SimdFloatReduceCmp            0                       # attempts to use FU when none available
system.cpu.iq.fu_full::SimdAes                      0                       # attempts to use FU when none available
system.cpu.iq.fu_full::SimdAesMix                   0                       # attempts to use FU when none available
system.cpu.iq.fu_full::SimdSha1Hash                 0                       # attempts to use FU when none available
system.cpu.iq.fu_full::SimdSha1Hash2                0                       # attempts to use FU when none available
system.cpu.iq.fu_full::SimdSha256Hash               0                       # attempts to use FU when none available
system.cpu.iq.fu_full::SimdSha256Hash2              0                       # attempts to use FU when none available
system.cpu.iq.fu_full::SimdShaSigma2                0                       # attempts to use FU when none available
system.cpu.iq.fu_full::SimdShaSigma3                0                       # attempts to use FU when none available
system.cpu.iq.fu_full::SimdPredAlu                  0                       # attempts to use FU when none available
system.cpu.iq.fu_full::MemRead                      0                       # attempts to use FU when none available
system.cpu.iq.fu_full::MemWrite                     0                       # attempts to use FU when none available
system.cpu.iq.fu_full::FloatMemRead                 0                       # attempts to use FU when none available
system.cpu.iq.fu_full::FloatMemWrite                0                       # attempts to use FU when none available
system.cpu.iq.fu_full::IprAccess                    0                       # attempts to use FU when none available
system.cpu.iq.fu_full::InstPrefetch                 0                       # attempts to use FU when none available
system.cpu.iq.int_alu_accesses                3947883                       # Number of integer alu accesses
system.cpu.iq.int_inst_queue_reads           10477448                       # Number of integer instruction queue reads
system.cpu.iq.int_inst_queue_wakeup_accesses      3922369                       # Number of integer instruction queue wakeup accesses
system.cpu.iq.int_inst_queue_writes           5099581                       # Number of integer instruction queue writes
system.cpu.iq.iqInstsAdded                    4371372                       # Number of instructions added to the IQ (excludes non-spec)
system.cpu.iq.iqInstsIssued                   4062027                       # Number of instructions issued
system.cpu.iq.iqNonSpecInstsAdded                1084                       # Number of non-speculative instructions added to the IQ
system.cpu.iq.iqSquashedInstsExamined          854247                       # Number of squashed instructions iterated over during squash; mainly for profiling
system.cpu.iq.iqSquashedInstsIssued             17658                       # Number of squashed instructions issued
system.cpu.iq.iqSquashedNonSpecRemoved            352                       # Number of squashed non-spec instructions that were removed
system.cpu.iq.iqSquashedOperandsExamined      1283822                       # Number of squashed operands that are examined and possibly removed from graph
system.cpu.iq.issued_per_cycle::samples       2513676                       # Number of insts issued each cycle
system.cpu.iq.issued_per_cycle::mean         1.615971                       # Number of insts issued each cycle
system.cpu.iq.issued_per_cycle::stdev        1.672900                       # Number of insts issued each cycle
system.cpu.iq.issued_per_cycle::underflows            0      0.00%      0.00% # Number of insts issued each cycle
system.cpu.iq.issued_per_cycle::0             1146831     45.62%     45.62% # Number of insts issued each cycle
system.cpu.iq.issued_per_cycle::1              164045      6.53%     52.15% # Number of insts issued each cycle
system.cpu.iq.issued_per_cycle::2              291278     11.59%     63.74% # Number of insts issued each cycle
system.cpu.iq.issued_per_cycle::3              330662     13.15%     76.89% # Number of insts issued each cycle
system.cpu.iq.issued_per_cycle::4              580860     23.11%    100.00% # Number of insts issued each cycle
system.cpu.iq.issued_per_cycle::overflows            0      0.00%    100.00% # Number of insts issued each cycle
system.cpu.iq.issued_per_cycle::min_value            0                       # Number of insts issued each cycle
system.cpu.iq.issued_per_cycle::max_value            4                       # Number of insts issued each cycle
system.cpu.iq.issued_per_cycle::total         2513676                       # Number of insts issued each cycle
system.cpu.iq.rate                           1.526119                       # Inst issue rate
system.cpu.iq.vec_alu_accesses                      0                       # Number of vector alu accesses
system.cpu.iq.vec_inst_queue_reads                  0                       # Number of vector instruction queue reads
system.cpu.iq.vec_inst_queue_wakeup_accesses            0                       # Number of vector instruction queue wakeup accesses
system.cpu.iq.vec_inst_queue_writes                 0                       # Number of vector instruction queue writes
system.cpu.itb.rdAccesses                           0                       # TLB accesses on read requests
system.cpu.itb.rdMisses                             0                       # TLB misses on read requests
system.cpu.itb.wrAccesses                      232646                       # TLB accesses on write requests
system.cpu.itb.wrMisses                           322                       # TLB misses on write requests
system.cpu.memDep0.conflictingLoads             10371                       # Number of conflicting loads.
system.cpu.memDep0.conflictingStores             3708                       # Number of conflicting stores.
system.cpu.memDep0.insertedLoads               595315                       # Number of loads inserted to the mem dependence unit.
system.cpu.memDep0.insertedStores              195502                       # Number of stores inserted to the mem dependence unit.
system.cpu.misc_regfile_reads                 1521489                       # number of misc regfile reads
system.cpu.misc_regfile_writes                    675                       # number of misc regfile writes
system.cpu.numCycles                          2661671                       # number of cpu cycles simulated
system.cpu.numWorkItemsCompleted                    0                       # number of work items this cpu completed
system.cpu.numWorkItemsStarted                      0                       # number of work items this cpu started
system.cpu.process.numSyscalls                     56                       # Number of system calls
system.cpu.rename.BlockCycles                  824575                       # Number of cycles rename is blocking
system.cpu.rename.CommittedMaps               4821672                       # Number of HB maps that are committed
system.cpu.rename.FullRegisterEvents               34                       # Number of times there has been no free registers
system.cpu.rename.IQFullEvents                  43324                       # Number of times rename has blocked due to IQ full
system.cpu.rename.IdleCycles                   332138                       # Number of cycles rename is idle
system.cpu.rename.LQFullEvents                  15561                       # Number of times rename has blocked due to LQ full
system.cpu.rename.ROBFullEvents                  4773                       # Number of times rename has blocked due to ROB full
system.cpu.rename.RenameLookups              11787107                       # Number of register rename lookups that rename has made
system.cpu.rename.RenamedInsts                4508020                       # Number of instructions processed by rename
system.cpu.rename.RenamedOperands             6168935                       # Number of destination operands rename has renamed
system.cpu.rename.RunCycles                   1142381                       # Number of cycles rename is running
system.cpu.rename.SQFullEvents                  76807                       # Number of times rename has blocked due to SQ full
system.cpu.rename.SquashCycles                  23414                       # Number of cycles rename is squashing
system.cpu.rename.UnblockCycles                171738                       # Number of cycles rename is unblocking
system.cpu.rename.UndoneMaps                  1347240                       # Number of HB maps that are undone due to squashing
system.cpu.rename.fp_rename_lookups            151357                       # Number of floating rename lookups
system.cpu.rename.int_rename_lookups          7156613                       # Number of integer rename lookups
system.cpu.rename.serializeStallCycles          19430                       # count of cycles rename stalled for serializing inst
system.cpu.rename.serializingInsts                866                       # count of serializing insts renamed
system.cpu.rename.skidInsts                    198584                       # count of insts added to the skid buffer
system.cpu.rename.tempSerializingInsts            914                       # count of temporary serializing insts renamed
system.cpu.rob.rob_reads                      6066208                       # The number of ROB reads
system.cpu.rob.rob_writes                     8978712                       # The number of ROB writes
system.cpu.timesIdled                            1478                       # Number of times that the entire CPU went into an idle state and unscheduled itself
system.l2bus.snoop_filter.hit_multi_requests           10                       # Number of requests hitting in the snoop filter with multiple (>1) holders of the requested data.
system.l2bus.snoop_filter.hit_multi_snoops            0                       # Number of snoops hitting in the snoop filter with multiple (>1) holders of the requested data.
system.l2bus.snoop_filter.hit_single_requests        18353                       # Number of requests hitting in the snoop filter with a single holder of the requested data.
system.l2bus.snoop_filter.hit_single_snoops          416                       # Number of snoops hitting in the snoop filter with a single holder of the requested data.
system.l2bus.snoop_filter.tot_requests          37986                       # Total number of requests made to the snoop filter.
system.l2bus.snoop_filter.tot_snoops              416                       # Total number of snoops made to the snoop filter.
system.l2cache.prefetcher.num_hwpf_issued          613                       # number of hwpf issued
system.l2cache.prefetcher.pfBufferHit               0                       # number of redundant prefetches already in prefetch queue
system.l2cache.prefetcher.pfIdentified            614                       # number of prefetch candidates identified
system.l2cache.prefetcher.pfInCache                 0                       # number of redundant prefetches already in cache/mshr dropped
system.l2cache.prefetcher.pfRemovedFull             0                       # number of prefetches dropped due to prefetch queue size
system.l2cache.prefetcher.pfSpanPage               82                       # number of prefetches that crossed the page
system.membus.snoop_filter.hit_multi_requests            0                       # Number of requests hitting in the snoop filter with multiple (>1) holders of the requested data.
system.membus.snoop_filter.hit_multi_snoops            0                       # Number of snoops hitting in the snoop filter with multiple (>1) holders of the requested data.
system.membus.snoop_filter.hit_single_requests         9139                       # Number of requests hitting in the snoop filter with a single holder of the requested data.
system.membus.snoop_filter.hit_single_snoops            0                       # Number of snoops hitting in the snoop filter with a single holder of the requested data.
system.membus.snoop_filter.tot_requests         22394                       # Total number of requests made to the snoop filter.
system.membus.snoop_filter.tot_snoops               0                       # Total number of snoops made to the snoop filter.
system.membus.pwrStateResidencyTicks::UNDEFINED   1064668000                       # Cumulative time (in ticks) in various power states
system.membus.trans_dist::ReadResp              11945                       # Transaction distribution
system.membus.trans_dist::WritebackDirty         1308                       # Transaction distribution
system.membus.trans_dist::CleanEvict             7831                       # Transaction distribution
system.membus.trans_dist::ReadExReq              1310                       # Transaction distribution
system.membus.trans_dist::ReadExResp             1310                       # Transaction distribution
system.membus.trans_dist::ReadSharedReq         11945                       # Transaction distribution
system.membus.pkt_count_system.l2cache.mem_side::system.mem_ctrl.port        35649                       # Packet count per connected master and slave (bytes)
system.membus.pkt_count_system.l2cache.mem_side::total        35649                       # Packet count per connected master and slave (bytes)
system.membus.pkt_count::total                  35649                       # Packet count per connected master and slave (bytes)
system.membus.pkt_size_system.l2cache.mem_side::system.mem_ctrl.port       932032                       # Cumulative packet size per connected master and slave (bytes)
system.membus.pkt_size_system.l2cache.mem_side::total       932032                       # Cumulative packet size per connected master and slave (bytes)
system.membus.pkt_size::total                  932032                       # Cumulative packet size per connected master and slave (bytes)
system.membus.snoops                                0                       # Total snoops (count)
system.membus.snoopTraffic                          0                       # Total snoop traffic (bytes)
system.membus.snoop_fanout::samples             13255                       # Request fanout histogram
system.membus.snoop_fanout::mean                    0                       # Request fanout histogram
system.membus.snoop_fanout::stdev                   0                       # Request fanout histogram
system.membus.snoop_fanout::underflows              0      0.00%      0.00% # Request fanout histogram
system.membus.snoop_fanout::0                   13255    100.00%    100.00% # Request fanout histogram
system.membus.snoop_fanout::1                       0      0.00%    100.00% # Request fanout histogram
system.membus.snoop_fanout::overflows               0      0.00%    100.00% # Request fanout histogram
system.membus.snoop_fanout::min_value               0                       # Request fanout histogram
system.membus.snoop_fanout::max_value               0                       # Request fanout histogram
system.membus.snoop_fanout::total               13255                       # Request fanout histogram
system.membus.reqLayer2.occupancy            11074185                       # Layer occupancy (ticks)
system.membus.reqLayer2.utilization               1.0                       # Layer utilization (%)
system.membus.respLayer0.occupancy           28756915                       # Layer occupancy (ticks)
system.membus.respLayer0.utilization              2.7                       # Layer utilization (%)
system.l2bus.pwrStateResidencyTicks::UNDEFINED   1064668000                       # Cumulative time (in ticks) in various power states
system.l2bus.trans_dist::ReadResp               17604                       # Transaction distribution
system.l2bus.trans_dist::WritebackDirty          4039                       # Transaction distribution
system.l2bus.trans_dist::CleanEvict             23529                       # Transaction distribution
system.l2bus.trans_dist::HardPFReq                880                       # Transaction distribution
system.l2bus.trans_dist::ReadExReq               2029                       # Transaction distribution
system.l2bus.trans_dist::ReadExResp              2029                       # Transaction distribution
system.l2bus.trans_dist::ReadSharedReq          17604                       # Transaction distribution
system.l2bus.pkt_count_system.cpu.icache.mem_side::system.l2cache.cpu_side         7608                       # Packet count per connected master and slave (bytes)
system.l2bus.pkt_count_system.cpu.dcache.mem_side::system.l2cache.cpu_side        50009                       # Packet count per connected master and slave (bytes)
system.l2bus.pkt_count::total                   57617                       # Packet count per connected master and slave (bytes)
system.l2bus.pkt_size_system.cpu.icache.mem_side::system.l2cache.cpu_side       167680                       # Cumulative packet size per connected master and slave (bytes)
system.l2bus.pkt_size_system.cpu.dcache.mem_side::system.l2cache.cpu_side      1263488                       # Cumulative packet size per connected master and slave (bytes)
system.l2bus.pkt_size::total                  1431168                       # Cumulative packet size per connected master and slave (bytes)
system.l2bus.snoops                             10097                       # Total snoops (count)
system.l2bus.snoopTraffic                       83840                       # Total snoop traffic (bytes)
system.l2bus.snoop_fanout::samples              29728                       # Request fanout histogram
system.l2bus.snoop_fanout::mean              0.014330                       # Request fanout histogram
system.l2bus.snoop_fanout::stdev             0.118849                       # Request fanout histogram
system.l2bus.snoop_fanout::underflows               0      0.00%      0.00% # Request fanout histogram
system.l2bus.snoop_fanout::0                    29302     98.57%     98.57% # Request fanout histogram
system.l2bus.snoop_fanout::1                      426      1.43%    100.00% # Request fanout histogram
system.l2bus.snoop_fanout::2                        0      0.00%    100.00% # Request fanout histogram
system.l2bus.snoop_fanout::overflows                0      0.00%    100.00% # Request fanout histogram
system.l2bus.snoop_fanout::min_value                0                       # Request fanout histogram
system.l2bus.snoop_fanout::max_value                1                       # Request fanout histogram
system.l2bus.snoop_fanout::total                29728                       # Request fanout histogram
system.l2bus.respLayer1.occupancy            20413599                       # Layer occupancy (ticks)
system.l2bus.respLayer1.utilization               1.9                       # Layer utilization (%)
system.l2bus.reqLayer0.occupancy             18854124                       # Layer occupancy (ticks)
system.l2bus.reqLayer0.utilization                1.8                       # Layer utilization (%)
system.l2bus.respLayer0.occupancy             3147996                       # Layer occupancy (ticks)
system.l2bus.respLayer0.utilization               0.3                       # Layer utilization (%)
system.clk_domain.clock                           400                       # Clock period in ticks
system.clk_domain.voltage_domain.voltage            1                       # Voltage in Volts
system.cpu.pwrStateResidencyTicks::ON      1064668000                       # Cumulative time (in ticks) in various power states
system.cpu.icache.pwrStateResidencyTicks::UNDEFINED   1064668000                       # Cumulative time (in ticks) in various power states
system.cpu.icache.demand_hits::.cpu.inst       229293                       # number of demand (read+write) hits
system.cpu.icache.demand_hits::total           229293                       # number of demand (read+write) hits
system.cpu.icache.overall_hits::.cpu.inst       229293                       # number of overall hits
system.cpu.icache.overall_hits::total          229293                       # number of overall hits
system.cpu.icache.demand_misses::.cpu.inst         3270                       # number of demand (read+write) misses
system.cpu.icache.demand_misses::total           3270                       # number of demand (read+write) misses
system.cpu.icache.overall_misses::.cpu.inst         3270                       # number of overall misses
system.cpu.icache.overall_misses::total          3270                       # number of overall misses
system.cpu.icache.demand_miss_latency::.cpu.inst    162937999                       # number of demand (read+write) miss cycles
system.cpu.icache.demand_miss_latency::total    162937999                       # number of demand (read+write) miss cycles
system.cpu.icache.overall_miss_latency::.cpu.inst    162937999                       # number of overall miss cycles
system.cpu.icache.overall_miss_latency::total    162937999                       # number of overall miss cycles
system.cpu.icache.demand_accesses::.cpu.inst       232563                       # number of demand (read+write) accesses
system.cpu.icache.demand_accesses::total       232563                       # number of demand (read+write) accesses
system.cpu.icache.overall_accesses::.cpu.inst       232563                       # number of overall (read+write) accesses
system.cpu.icache.overall_accesses::total       232563                       # number of overall (read+write) accesses
system.cpu.icache.demand_miss_rate::.cpu.inst     0.014061                       # miss rate for demand accesses
system.cpu.icache.demand_miss_rate::total     0.014061                       # miss rate for demand accesses
system.cpu.icache.overall_miss_rate::.cpu.inst     0.014061                       # miss rate for overall accesses
system.cpu.icache.overall_miss_rate::total     0.014061                       # miss rate for overall accesses
system.cpu.icache.demand_avg_miss_latency::.cpu.inst 49828.134251                       # average overall miss latency
system.cpu.icache.demand_avg_miss_latency::total 49828.134251                       # average overall miss latency
system.cpu.icache.overall_avg_miss_latency::.cpu.inst 49828.134251                       # average overall miss latency
system.cpu.icache.overall_avg_miss_latency::total 49828.134251                       # average overall miss latency
system.cpu.icache.blocked_cycles::no_mshrs           54                       # number of cycles access was blocked
system.cpu.icache.blocked_cycles::no_targets            0                       # number of cycles access was blocked
system.cpu.icache.blocked::no_mshrs                 3                       # number of cycles access was blocked
system.cpu.icache.blocked::no_targets               0                       # number of cycles access was blocked
system.cpu.icache.avg_blocked_cycles::no_mshrs           18                       # average number of cycles each access was blocked
system.cpu.icache.avg_blocked_cycles::no_targets          nan                       # average number of cycles each access was blocked
system.cpu.icache.demand_mshr_hits::.cpu.inst          648                       # number of demand (read+write) MSHR hits
system.cpu.icache.demand_mshr_hits::total          648                       # number of demand (read+write) MSHR hits
system.cpu.icache.overall_mshr_hits::.cpu.inst          648                       # number of overall MSHR hits
system.cpu.icache.overall_mshr_hits::total          648                       # number of overall MSHR hits
system.cpu.icache.demand_mshr_misses::.cpu.inst         2622                       # number of demand (read+write) MSHR misses
system.cpu.icache.demand_mshr_misses::total         2622                       # number of demand (read+write) MSHR misses
system.cpu.icache.overall_mshr_misses::.cpu.inst         2622                       # number of overall MSHR misses
system.cpu.icache.overall_mshr_misses::total         2622                       # number of overall MSHR misses
system.cpu.icache.demand_mshr_miss_latency::.cpu.inst    131423199                       # number of demand (read+write) MSHR miss cycles
system.cpu.icache.demand_mshr_miss_latency::total    131423199                       # number of demand (read+write) MSHR miss cycles
system.cpu.icache.overall_mshr_miss_latency::.cpu.inst    131423199                       # number of overall MSHR miss cycles
system.cpu.icache.overall_mshr_miss_latency::total    131423199                       # number of overall MSHR miss cycles
system.cpu.icache.demand_mshr_miss_rate::.cpu.inst     0.011274                       # mshr miss rate for demand accesses
system.cpu.icache.demand_mshr_miss_rate::total     0.011274                       # mshr miss rate for demand accesses
system.cpu.icache.overall_mshr_miss_rate::.cpu.inst     0.011274                       # mshr miss rate for overall accesses
system.cpu.icache.overall_mshr_miss_rate::total     0.011274                       # mshr miss rate for overall accesses
system.cpu.icache.demand_avg_mshr_miss_latency::.cpu.inst 50123.264302                       # average overall mshr miss latency
system.cpu.icache.demand_avg_mshr_miss_latency::total 50123.264302                       # average overall mshr miss latency
system.cpu.icache.overall_avg_mshr_miss_latency::.cpu.inst 50123.264302                       # average overall mshr miss latency
system.cpu.icache.overall_avg_mshr_miss_latency::total 50123.264302                       # average overall mshr miss latency
system.cpu.icache.replacements                   2366                       # number of replacements
system.cpu.icache.ReadReq_hits::.cpu.inst       229293                       # number of ReadReq hits
system.cpu.icache.ReadReq_hits::total          229293                       # number of ReadReq hits
system.cpu.icache.ReadReq_misses::.cpu.inst         3270                       # number of ReadReq misses
system.cpu.icache.ReadReq_misses::total          3270                       # number of ReadReq misses
system.cpu.icache.ReadReq_miss_latency::.cpu.inst    162937999                       # number of ReadReq miss cycles
system.cpu.icache.ReadReq_miss_latency::total    162937999                       # number of ReadReq miss cycles
system.cpu.icache.ReadReq_accesses::.cpu.inst       232563                       # number of ReadReq accesses(hits+misses)
system.cpu.icache.ReadReq_accesses::total       232563                       # number of ReadReq accesses(hits+misses)
system.cpu.icache.ReadReq_miss_rate::.cpu.inst     0.014061                       # miss rate for ReadReq accesses
system.cpu.icache.ReadReq_miss_rate::total     0.014061                       # miss rate for ReadReq accesses
system.cpu.icache.ReadReq_avg_miss_latency::.cpu.inst 49828.134251                       # average ReadReq miss latency
system.cpu.icache.ReadReq_avg_miss_latency::total 49828.134251                       # average ReadReq miss latency
system.cpu.icache.ReadReq_mshr_hits::.cpu.inst          648                       # number of ReadReq MSHR hits
system.cpu.icache.ReadReq_mshr_hits::total          648                       # number of ReadReq MSHR hits
system.cpu.icache.ReadReq_mshr_misses::.cpu.inst         2622                       # number of ReadReq MSHR misses
system.cpu.icache.ReadReq_mshr_misses::total         2622                       # number of ReadReq MSHR misses
system.cpu.icache.ReadReq_mshr_miss_latency::.cpu.inst    131423199                       # number of ReadReq MSHR miss cycles
system.cpu.icache.ReadReq_mshr_miss_latency::total    131423199                       # number of ReadReq MSHR miss cycles
system.cpu.icache.ReadReq_mshr_miss_rate::.cpu.inst     0.011274                       # mshr miss rate for ReadReq accesses
system.cpu.icache.ReadReq_mshr_miss_rate::total     0.011274                       # mshr miss rate for ReadReq accesses
system.cpu.icache.ReadReq_avg_mshr_miss_latency::.cpu.inst 50123.264302                       # average ReadReq mshr miss latency
system.cpu.icache.ReadReq_avg_mshr_miss_latency::total 50123.264302                       # average ReadReq mshr miss latency
system.cpu.icache.prefetcher.pwrStateResidencyTicks::UNDEFINED   1064668000                       # Cumulative time (in ticks) in various power states
system.cpu.icache.tags.pwrStateResidencyTicks::UNDEFINED   1064668000                       # Cumulative time (in ticks) in various power states
system.cpu.icache.tags.tagsinuse           253.411679                       # Cycle average of tags in use
system.cpu.icache.tags.total_refs              207200                       # Total number of references to valid blocks.
system.cpu.icache.tags.sampled_refs              2366                       # Sample count of references to valid blocks.
system.cpu.icache.tags.avg_refs             87.573964                       # Average number of references to valid blocks.
system.cpu.icache.tags.warmup_cycle             66400                       # Cycle when the warmup percentage was hit.
system.cpu.icache.tags.occ_blocks::.cpu.inst   253.411679                       # Average occupied blocks per requestor
system.cpu.icache.tags.occ_percent::.cpu.inst     0.989889                       # Average percentage of cache occupancy
system.cpu.icache.tags.occ_percent::total     0.989889                       # Average percentage of cache occupancy
system.cpu.icache.tags.occ_task_id_blocks::1024          256                       # Occupied blocks per task id
system.cpu.icache.tags.age_task_id_blocks_1024::0          111                       # Occupied blocks per task id
system.cpu.icache.tags.age_task_id_blocks_1024::1          128                       # Occupied blocks per task id
system.cpu.icache.tags.age_task_id_blocks_1024::2           17                       # Occupied blocks per task id
system.cpu.icache.tags.occ_task_id_percent::1024            1                       # Percentage of cache occupancy per task id
system.cpu.icache.tags.tag_accesses            467748                       # Number of tag accesses
system.cpu.icache.tags.data_accesses           467748                       # Number of data accesses
system.cpu.dtb.walker.pwrStateResidencyTicks::UNDEFINED   1064668000                       # Cumulative time (in ticks) in various power states
system.cpu.interrupts.clk_domain.clock           6400                       # Clock period in ticks
system.cpu.itb.walker.pwrStateResidencyTicks::UNDEFINED   1064668000                       # Cumulative time (in ticks) in various power states
system.cpu.dcache.pwrStateResidencyTicks::UNDEFINED   1064668000                       # Cumulative time (in ticks) in various power states
system.cpu.dcache.demand_hits::.cpu.data       656481                       # number of demand (read+write) hits
system.cpu.dcache.demand_hits::total           656481                       # number of demand (read+write) hits
system.cpu.dcache.overall_hits::.cpu.data       656481                       # number of overall hits
system.cpu.dcache.overall_hits::total          656481                       # number of overall hits
system.cpu.dcache.demand_misses::.cpu.data        35088                       # number of demand (read+write) misses
system.cpu.dcache.demand_misses::total          35088                       # number of demand (read+write) misses
system.cpu.dcache.overall_misses::.cpu.data        35088                       # number of overall misses
system.cpu.dcache.overall_misses::total         35088                       # number of overall misses
system.cpu.dcache.demand_miss_latency::.cpu.data   1686340000                       # number of demand (read+write) miss cycles
system.cpu.dcache.demand_miss_latency::total   1686340000                       # number of demand (read+write) miss cycles
system.cpu.dcache.overall_miss_latency::.cpu.data   1686340000                       # number of overall miss cycles
system.cpu.dcache.overall_miss_latency::total   1686340000                       # number of overall miss cycles
system.cpu.dcache.demand_accesses::.cpu.data       691569                       # number of demand (read+write) accesses
system.cpu.dcache.demand_accesses::total       691569                       # number of demand (read+write) accesses
system.cpu.dcache.overall_accesses::.cpu.data       691569                       # number of overall (read+write) accesses
system.cpu.dcache.overall_accesses::total       691569                       # number of overall (read+write) accesses
system.cpu.dcache.demand_miss_rate::.cpu.data     0.050737                       # miss rate for demand accesses
system.cpu.dcache.demand_miss_rate::total     0.050737                       # miss rate for demand accesses
system.cpu.dcache.overall_miss_rate::.cpu.data     0.050737                       # miss rate for overall accesses
system.cpu.dcache.overall_miss_rate::total     0.050737                       # miss rate for overall accesses
system.cpu.dcache.demand_avg_miss_latency::.cpu.data 48060.305518                       # average overall miss latency
system.cpu.dcache.demand_avg_miss_latency::total 48060.305518                       # average overall miss latency
system.cpu.dcache.overall_avg_miss_latency::.cpu.data 48060.305518                       # average overall miss latency
system.cpu.dcache.overall_avg_miss_latency::total 48060.305518                       # average overall miss latency
system.cpu.dcache.blocked_cycles::no_mshrs        27074                       # number of cycles access was blocked
system.cpu.dcache.blocked_cycles::no_targets          108                       # number of cycles access was blocked
system.cpu.dcache.blocked::no_mshrs               702                       # number of cycles access was blocked
system.cpu.dcache.blocked::no_targets               1                       # number of cycles access was blocked
system.cpu.dcache.avg_blocked_cycles::no_mshrs    38.566952                       # average number of cycles each access was blocked
system.cpu.dcache.avg_blocked_cycles::no_targets          108                       # average number of cycles each access was blocked
system.cpu.dcache.unused_prefetches              1956                       # number of HardPF blocks evicted w/o reference
system.cpu.dcache.writebacks::.writebacks         2731                       # number of writebacks
system.cpu.dcache.writebacks::total              2731                       # number of writebacks
system.cpu.dcache.demand_mshr_hits::.cpu.data        22597                       # number of demand (read+write) MSHR hits
system.cpu.dcache.demand_mshr_hits::total        22597                       # number of demand (read+write) MSHR hits
system.cpu.dcache.overall_mshr_hits::.cpu.data        22597                       # number of overall MSHR hits
system.cpu.dcache.overall_mshr_hits::total        22597                       # number of overall MSHR hits
system.cpu.dcache.demand_mshr_misses::.cpu.data        12491                       # number of demand (read+write) MSHR misses
system.cpu.dcache.demand_mshr_misses::total        12491                       # number of demand (read+write) MSHR misses
system.cpu.dcache.overall_mshr_misses::.cpu.data        12491                       # number of overall MSHR misses
system.cpu.dcache.overall_mshr_misses::.cpu.dcache.prefetcher         4520                       # number of overall MSHR misses
system.cpu.dcache.overall_mshr_misses::total        17011                       # number of overall MSHR misses
system.cpu.dcache.demand_mshr_miss_latency::.cpu.data    569361200                       # number of demand (read+write) MSHR miss cycles
system.cpu.dcache.demand_mshr_miss_latency::total    569361200                       # number of demand (read+write) MSHR miss cycles
system.cpu.dcache.overall_mshr_miss_latency::.cpu.data    569361200                       # number of overall MSHR miss cycles
system.cpu.dcache.overall_mshr_miss_latency::.cpu.dcache.prefetcher    252425951                       # number of overall MSHR miss cycles
system.cpu.dcache.overall_mshr_miss_latency::total    821787151                       # number of overall MSHR miss cycles
system.cpu.dcache.demand_mshr_miss_rate::.cpu.data     0.018062                       # mshr miss rate for demand accesses
system.cpu.dcache.demand_mshr_miss_rate::total     0.018062                       # mshr miss rate for demand accesses
system.cpu.dcache.overall_mshr_miss_rate::.cpu.data     0.018062                       # mshr miss rate for overall accesses
system.cpu.dcache.overall_mshr_miss_rate::.cpu.dcache.prefetcher          inf                       # mshr miss rate for overall accesses
system.cpu.dcache.overall_mshr_miss_rate::total     0.024598                       # mshr miss rate for overall accesses
system.cpu.dcache.demand_avg_mshr_miss_latency::.cpu.data 45581.714835                       # average overall mshr miss latency
system.cpu.dcache.demand_avg_mshr_miss_latency::total 45581.714835                       # average overall mshr miss latency
system.cpu.dcache.overall_avg_mshr_miss_latency::.cpu.data 45581.714835                       # average overall mshr miss latency
system.cpu.dcache.overall_avg_mshr_miss_latency::.cpu.dcache.prefetcher 55846.449336                       # average overall mshr miss latency
system.cpu.dcache.overall_avg_mshr_miss_latency::total 48309.161778                       # average overall mshr miss latency
system.cpu.dcache.replacements                  15987                       # number of replacements
system.cpu.dcache.ReadReq_hits::.cpu.data       491282                       # number of ReadReq hits
system.cpu.dcache.ReadReq_hits::total          491282                       # number of ReadReq hits
system.cpu.dcache.ReadReq_misses::.cpu.data        33011                       # number of ReadReq misses
system.cpu.dcache.ReadReq_misses::total         33011                       # number of ReadReq misses
system.cpu.dcache.ReadReq_miss_latency::.cpu.data   1583334400                       # number of ReadReq miss cycles
system.cpu.dcache.ReadReq_miss_latency::total   1583334400                       # number of ReadReq miss cycles
system.cpu.dcache.ReadReq_accesses::.cpu.data       524293                       # number of ReadReq accesses(hits+misses)
system.cpu.dcache.ReadReq_accesses::total       524293                       # number of ReadReq accesses(hits+misses)
system.cpu.dcache.ReadReq_miss_rate::.cpu.data     0.062963                       # miss rate for ReadReq accesses
system.cpu.dcache.ReadReq_miss_rate::total     0.062963                       # miss rate for ReadReq accesses
system.cpu.dcache.ReadReq_avg_miss_latency::.cpu.data 47963.842356                       # average ReadReq miss latency
system.cpu.dcache.ReadReq_avg_miss_latency::total 47963.842356                       # average ReadReq miss latency
system.cpu.dcache.ReadReq_mshr_hits::.cpu.data        22548                       # number of ReadReq MSHR hits
system.cpu.dcache.ReadReq_mshr_hits::total        22548                       # number of ReadReq MSHR hits
system.cpu.dcache.ReadReq_mshr_misses::.cpu.data        10463                       # number of ReadReq MSHR misses
system.cpu.dcache.ReadReq_mshr_misses::total        10463                       # number of ReadReq MSHR misses
system.cpu.dcache.ReadReq_mshr_miss_latency::.cpu.data    470062400                       # number of ReadReq MSHR miss cycles
system.cpu.dcache.ReadReq_mshr_miss_latency::total    470062400                       # number of ReadReq MSHR miss cycles
system.cpu.dcache.ReadReq_mshr_miss_rate::.cpu.data     0.019956                       # mshr miss rate for ReadReq accesses
system.cpu.dcache.ReadReq_mshr_miss_rate::total     0.019956                       # mshr miss rate for ReadReq accesses
system.cpu.dcache.ReadReq_avg_mshr_miss_latency::.cpu.data 44926.158845                       # average ReadReq mshr miss latency
system.cpu.dcache.ReadReq_avg_mshr_miss_latency::total 44926.158845                       # average ReadReq mshr miss latency
system.cpu.dcache.WriteReq_hits::.cpu.data       165199                       # number of WriteReq hits
system.cpu.dcache.WriteReq_hits::total         165199                       # number of WriteReq hits
system.cpu.dcache.WriteReq_misses::.cpu.data         2077                       # number of WriteReq misses
system.cpu.dcache.WriteReq_misses::total         2077                       # number of WriteReq misses
system.cpu.dcache.WriteReq_miss_latency::.cpu.data    103005600                       # number of WriteReq miss cycles
system.cpu.dcache.WriteReq_miss_latency::total    103005600                       # number of WriteReq miss cycles
system.cpu.dcache.WriteReq_accesses::.cpu.data       167276                       # number of WriteReq accesses(hits+misses)
system.cpu.dcache.WriteReq_accesses::total       167276                       # number of WriteReq accesses(hits+misses)
system.cpu.dcache.WriteReq_miss_rate::.cpu.data     0.012417                       # miss rate for WriteReq accesses
system.cpu.dcache.WriteReq_miss_rate::total     0.012417                       # miss rate for WriteReq accesses
system.cpu.dcache.WriteReq_avg_miss_latency::.cpu.data 49593.452094                       # average WriteReq miss latency
system.cpu.dcache.WriteReq_avg_miss_latency::total 49593.452094                       # average WriteReq miss latency
system.cpu.dcache.WriteReq_mshr_hits::.cpu.data           49                       # number of WriteReq MSHR hits
system.cpu.dcache.WriteReq_mshr_hits::total           49                       # number of WriteReq MSHR hits
system.cpu.dcache.WriteReq_mshr_misses::.cpu.data         2028                       # number of WriteReq MSHR misses
system.cpu.dcache.WriteReq_mshr_misses::total         2028                       # number of WriteReq MSHR misses
system.cpu.dcache.WriteReq_mshr_miss_latency::.cpu.data     99298800                       # number of WriteReq MSHR miss cycles
[...]
system.l2cache.demand_mshr_miss_rate::.cpu.data     0.592697                       # mshr miss rate for demand accesses
system.l2cache.demand_mshr_miss_rate::.cpu.dcache.prefetcher     0.677419                       # mshr miss rate for demand accesses
system.l2cache.demand_mshr_miss_rate::total     0.118170                       # mshr miss rate for demand accesses
system.l2cache.overall_mshr_miss_rate::.cpu.inst     0.083532                       # mshr miss rate for overall accesses
system.l2cache.overall_mshr_miss_rate::.cpu.data     0.592697                       # mshr miss rate for overall accesses
system.l2cache.overall_mshr_miss_rate::.cpu.dcache.prefetcher     0.677419                       # mshr miss rate for overall accesses
system.l2cache.overall_mshr_miss_rate::.l2cache.prefetcher          inf                       # mshr miss rate for overall accesses
system.l2cache.overall_mshr_miss_rate::total     0.118647                       # mshr miss rate for overall accesses
system.l2cache.demand_avg_mshr_miss_latency::.cpu.inst 59173.930754                       # average overall mshr miss latency
system.l2cache.demand_avg_mshr_miss_latency::.cpu.data 60585.781991                       # average overall mshr miss latency
system.l2cache.demand_avg_mshr_miss_latency::.cpu.dcache.prefetcher 62141.880952                       # average overall mshr miss latency
system.l2cache.demand_avg_mshr_miss_latency::total 59741.880376                       # average overall mshr miss latency
system.l2cache.overall_avg_mshr_miss_latency::.cpu.inst 59173.930754                       # average overall mshr miss latency
system.l2cache.overall_avg_mshr_miss_latency::.cpu.data 60585.781991                       # average overall mshr miss latency
system.l2cache.overall_avg_mshr_miss_latency::.cpu.dcache.prefetcher 62141.880952                       # average overall mshr miss latency
system.l2cache.overall_avg_mshr_miss_latency::.l2cache.prefetcher        59732                       # average overall mshr miss latency
system.l2cache.overall_avg_mshr_miss_latency::total 59741.840696                       # average overall mshr miss latency
system.l2cache.replacements                       761                       # number of replacements
system.l2cache.WritebackDirty_hits::.writebacks          101                       # number of WritebackDirty hits
system.l2cache.WritebackDirty_hits::total          101                       # number of WritebackDirty hits
system.l2cache.WritebackDirty_accesses::.writebacks          101                       # number of WritebackDirty accesses(hits+misses)
system.l2cache.WritebackDirty_accesses::total          101                       # number of WritebackDirty accesses(hits+misses)
system.l2cache.CleanEvict_mshr_misses::.writebacks           24                       # number of CleanEvict MSHR misses
system.l2cache.CleanEvict_mshr_misses::total           24                       # number of CleanEvict MSHR misses
system.l2cache.CleanEvict_mshr_miss_rate::.writebacks          inf                       # mshr miss rate for CleanEvict accesses
system.l2cache.CleanEvict_mshr_miss_rate::total          inf                       # mshr miss rate for CleanEvict accesses
system.l2cache.HardPFReq_mshr_misses::.l2cache.prefetcher            3                       # number of HardPFReq MSHR misses
system.l2cache.HardPFReq_mshr_misses::total            3                       # number of HardPFReq MSHR misses
system.l2cache.HardPFReq_mshr_miss_latency::.l2cache.prefetcher       179196                       # number of HardPFReq MSHR miss cycles
system.l2cache.HardPFReq_mshr_miss_latency::total       179196                       # number of HardPFReq MSHR miss cycles
system.l2cache.HardPFReq_mshr_miss_rate::.l2cache.prefetcher          inf                       # mshr miss rate for HardPFReq accesses
system.l2cache.HardPFReq_mshr_miss_rate::total          inf                       # mshr miss rate for HardPFReq accesses
system.l2cache.HardPFReq_avg_mshr_miss_latency::.l2cache.prefetcher        59732                       # average HardPFReq mshr miss latency
system.l2cache.HardPFReq_avg_mshr_miss_latency::total        59732                       # average HardPFReq mshr miss latency
system.l2cache.ReadExReq_hits::.cpu.data            3                       # number of ReadExReq hits
system.l2cache.ReadExReq_hits::total                3                       # number of ReadExReq hits
system.l2cache.ReadExReq_misses::.cpu.data           58                       # number of ReadExReq misses
system.l2cache.ReadExReq_misses::total             58                       # number of ReadExReq misses
system.l2cache.ReadExReq_miss_latency::.cpu.data      3944800                       # number of ReadExReq miss cycles
system.l2cache.ReadExReq_miss_latency::total      3944800                       # number of ReadExReq miss cycles
system.l2cache.ReadExReq_accesses::.cpu.data           61                       # number of ReadExReq accesses(hits+misses)
system.l2cache.ReadExReq_accesses::total           61                       # number of ReadExReq accesses(hits+misses)
system.l2cache.ReadExReq_miss_rate::.cpu.data     0.950820                       # miss rate for ReadExReq accesses
system.l2cache.ReadExReq_miss_rate::total     0.950820                       # miss rate for ReadExReq accesses
system.l2cache.ReadExReq_avg_miss_latency::.cpu.data 68013.793103                       # average ReadExReq miss latency
system.l2cache.ReadExReq_avg_miss_latency::total 68013.793103                       # average ReadExReq miss latency
system.l2cache.ReadExReq_mshr_misses::.cpu.data           58                       # number of ReadExReq MSHR misses
system.l2cache.ReadExReq_mshr_misses::total           58                       # number of ReadExReq MSHR misses
system.l2cache.ReadExReq_mshr_miss_latency::.cpu.data      3480800                       # number of ReadExReq MSHR miss cycles
system.l2cache.ReadExReq_mshr_miss_latency::total      3480800                       # number of ReadExReq MSHR miss cycles
system.l2cache.ReadExReq_mshr_miss_rate::.cpu.data     0.950820                       # mshr miss rate for ReadExReq accesses
system.l2cache.ReadExReq_mshr_miss_rate::total     0.950820                       # mshr miss rate for ReadExReq accesses
system.l2cache.ReadExReq_avg_mshr_miss_latency::.cpu.data 60013.793103                       # average ReadExReq mshr miss latency
system.l2cache.ReadExReq_avg_mshr_miss_latency::total 60013.793103                       # average ReadExReq mshr miss latency
system.l2cache.ReadSharedReq_hits::.cpu.inst         5387                       # number of ReadSharedReq hits
system.l2cache.ReadSharedReq_hits::.cpu.data          141                       # number of ReadSharedReq hits
system.l2cache.ReadSharedReq_hits::.cpu.dcache.prefetcher           20                       # number of ReadSharedReq hits
system.l2cache.ReadSharedReq_hits::total         5548                       # number of ReadSharedReq hits
system.l2cache.ReadSharedReq_misses::.cpu.inst          491                       # number of ReadSharedReq misses
system.l2cache.ReadSharedReq_misses::.cpu.data          154                       # number of ReadSharedReq misses
system.l2cache.ReadSharedReq_misses::.cpu.dcache.prefetcher           42                       # number of ReadSharedReq misses
system.l2cache.ReadSharedReq_misses::total          687                       # number of ReadSharedReq misses
system.l2cache.ReadSharedReq_miss_latency::.cpu.inst     32982400                       # number of ReadSharedReq miss cycles
system.l2cache.ReadSharedReq_miss_latency::.cpu.data     10583200                       # number of ReadSharedReq miss cycles
system.l2cache.ReadSharedReq_miss_latency::.cpu.dcache.prefetcher      2945959                       # number of ReadSharedReq miss cycles
system.l2cache.ReadSharedReq_miss_latency::total     46511559                       # number of ReadSharedReq miss cycles
system.l2cache.ReadSharedReq_accesses::.cpu.inst         5878                       # number of ReadSharedReq accesses(hits+misses)
system.l2cache.ReadSharedReq_accesses::.cpu.data          295                       # number of ReadSharedReq accesses(hits+misses)
system.l2cache.ReadSharedReq_accesses::.cpu.dcache.prefetcher           62                       # number of ReadSharedReq accesses(hits+misses)
system.l2cache.ReadSharedReq_accesses::total         6235                       # number of ReadSharedReq accesses(hits+misses)
system.l2cache.ReadSharedReq_miss_rate::.cpu.inst     0.083532                       # miss rate for ReadSharedReq accesses
system.l2cache.ReadSharedReq_miss_rate::.cpu.data     0.522034                       # miss rate for ReadSharedReq accesses
system.l2cache.ReadSharedReq_miss_rate::.cpu.dcache.prefetcher     0.677419                       # miss rate for ReadSharedReq accesses
system.l2cache.ReadSharedReq_miss_rate::total     0.110184                       # miss rate for ReadSharedReq accesses
system.l2cache.ReadSharedReq_avg_miss_latency::.cpu.inst 67173.930754                       # average ReadSharedReq miss latency
system.l2cache.ReadSharedReq_avg_miss_latency::.cpu.data 68722.077922                       # average ReadSharedReq miss latency
system.l2cache.ReadSharedReq_avg_miss_latency::.cpu.dcache.prefetcher 70141.880952                       # average ReadSharedReq miss latency
system.l2cache.ReadSharedReq_avg_miss_latency::total 67702.414847                       # average ReadSharedReq miss latency
system.l2cache.ReadSharedReq_mshr_hits::.cpu.data            1                       # number of ReadSharedReq MSHR hits
system.l2cache.ReadSharedReq_mshr_hits::total            1                       # number of ReadSharedReq MSHR hits
system.l2cache.ReadSharedReq_mshr_misses::.cpu.inst          491                       # number of ReadSharedReq MSHR misses
system.l2cache.ReadSharedReq_mshr_misses::.cpu.data          153                       # number of ReadSharedReq MSHR misses
system.l2cache.ReadSharedReq_mshr_misses::.cpu.dcache.prefetcher           42                       # number of ReadSharedReq MSHR misses
system.l2cache.ReadSharedReq_mshr_misses::total          686                       # number of ReadSharedReq MSHR misses
system.l2cache.ReadSharedReq_mshr_miss_latency::.cpu.inst     29054400                       # number of ReadSharedReq MSHR miss cycles
system.l2cache.ReadSharedReq_mshr_miss_latency::.cpu.data      9302800                       # number of ReadSharedReq MSHR miss cycles
system.l2cache.ReadSharedReq_mshr_miss_latency::.cpu.dcache.prefetcher      2609959                       # number of ReadSharedReq MSHR miss cycles
system.l2cache.ReadSharedReq_mshr_miss_latency::total     40967159                       # number of ReadSharedReq MSHR miss cycles
system.l2cache.ReadSharedReq_mshr_miss_rate::.cpu.inst     0.083532                       # mshr miss rate for ReadSharedReq accesses
system.l2cache.ReadSharedReq_mshr_miss_rate::.cpu.data     0.518644                       # mshr miss rate for ReadSharedReq accesses
system.l2cache.ReadSharedReq_mshr_miss_rate::.cpu.dcache.prefetcher     0.677419                       # mshr miss rate for ReadSharedReq accesses
system.l2cache.ReadSharedReq_mshr_miss_rate::total     0.110024                       # mshr miss rate for ReadSharedReq accesses
system.l2cache.ReadSharedReq_avg_mshr_miss_latency::.cpu.inst 59173.930754                       # average ReadSharedReq mshr miss latency
system.l2cache.ReadSharedReq_avg_mshr_miss_latency::.cpu.data 60802.614379                       # average ReadSharedReq mshr miss latency
system.l2cache.ReadSharedReq_avg_mshr_miss_latency::.cpu.dcache.prefetcher 62141.880952                       # average ReadSharedReq mshr miss latency
system.l2cache.ReadSharedReq_avg_mshr_miss_latency::total 59718.890671                       # average ReadSharedReq mshr miss latency
system.l2cache.prefetcher.pwrStateResidencyTicks::UNDEFINED    188064000                       # Cumulative time (in ticks) in various power states
system.l2cache.tags.pwrStateResidencyTicks::UNDEFINED    188064000                       # Cumulative time (in ticks) in various power states
system.l2cache.tags.tagsinuse                    4096                       # Cycle average of tags in use
system.l2cache.tags.total_refs                  25328                       # Total number of references to valid blocks.
system.l2cache.tags.sampled_refs                 4857                       # Sample count of references to valid blocks.
system.l2cache.tags.avg_refs                 5.214742                       # Average number of references to valid blocks.
system.l2cache.tags.warmup_cycle                    0                       # Cycle when the warmup percentage was hit.
system.l2cache.tags.occ_blocks::.writebacks    38.273309                       # Average occupied blocks per requestor
system.l2cache.tags.occ_blocks::.cpu.inst  1174.233566                       # Average occupied blocks per requestor
system.l2cache.tags.occ_blocks::.cpu.data  1832.431791                       # Average occupied blocks per requestor
system.l2cache.tags.occ_blocks::.cpu.dcache.prefetcher   939.165314                       # Average occupied blocks per requestor
system.l2cache.tags.occ_blocks::.l2cache.prefetcher   111.896020                       # Average occupied blocks per requestor
system.l2cache.tags.occ_percent::.writebacks     0.009344                       # Average percentage of cache occupancy
system.l2cache.tags.occ_percent::.cpu.inst     0.286678                       # Average percentage of cache occupancy
system.l2cache.tags.occ_percent::.cpu.data     0.447371                       # Average percentage of cache occupancy
system.l2cache.tags.occ_percent::.cpu.dcache.prefetcher     0.229288                       # Average percentage of cache occupancy
system.l2cache.tags.occ_percent::.l2cache.prefetcher     0.027318                       # Average percentage of cache occupancy
system.l2cache.tags.occ_percent::total              1                       # Average percentage of cache occupancy
system.l2cache.tags.occ_task_id_blocks::1022          976                       # Occupied blocks per task id
system.l2cache.tags.occ_task_id_blocks::1024         3120                       # Occupied blocks per task id
system.l2cache.tags.age_task_id_blocks_1022::0            7                       # Occupied blocks per task id
system.l2cache.tags.age_task_id_blocks_1022::1            7                       # Occupied blocks per task id
system.l2cache.tags.age_task_id_blocks_1022::2          926                       # Occupied blocks per task id
system.l2cache.tags.age_task_id_blocks_1022::3           36                       # Occupied blocks per task id
system.l2cache.tags.age_task_id_blocks_1024::0          176                       # Occupied blocks per task id
system.l2cache.tags.age_task_id_blocks_1024::1           90                       # Occupied blocks per task id
system.l2cache.tags.age_task_id_blocks_1024::2         2694                       # Occupied blocks per task id
system.l2cache.tags.age_task_id_blocks_1024::3          160                       # Occupied blocks per task id
system.l2cache.tags.occ_task_id_percent::1022     0.238281                       # Percentage of cache occupancy per task id
system.l2cache.tags.occ_task_id_percent::1024     0.761719                       # Percentage of cache occupancy per task id
system.l2cache.tags.tag_accesses               101481                       # Number of tag accesses
system.l2cache.tags.data_accesses              101481                       # Number of data accesses
system.mem_ctrl.pwrStateResidencyTicks::UNDEFINED    188064000                       # Cumulative time (in ticks) in various power states
system.mem_ctrl.bytes_read::.cpu.inst           31424                       # Number of bytes read from this memory
system.mem_ctrl.bytes_read::.cpu.data           13504                       # Number of bytes read from this memory
system.mem_ctrl.bytes_read::.cpu.dcache.prefetcher         2688                       # Number of bytes read from this memory
system.mem_ctrl.bytes_read::.l2cache.prefetcher          192                       # Number of bytes read from this memory
system.mem_ctrl.bytes_read::total               47808                       # Number of bytes read from this memory
system.mem_ctrl.bytes_inst_read::.cpu.inst        31424                       # Number of instructions bytes read from this memory
system.mem_ctrl.bytes_inst_read::total          31424                       # Number of instructions bytes read from this memory
system.mem_ctrl.bytes_written::.writebacks         4224                       # Number of bytes written to this memory
system.mem_ctrl.bytes_written::total             4224                       # Number of bytes written to this memory
system.mem_ctrl.num_reads::.cpu.inst              491                       # Number of read requests responded to by this memory
system.mem_ctrl.num_reads::.cpu.data              211                       # Number of read requests responded to by this memory
system.mem_ctrl.num_reads::.cpu.dcache.prefetcher           42                       # Number of read requests responded to by this memory
system.mem_ctrl.num_reads::.l2cache.prefetcher            3                       # Number of read requests responded to by this memory
system.mem_ctrl.num_reads::total                  747                       # Number of read requests responded to by this memory
system.mem_ctrl.num_writes::.writebacks            66                       # Number of write requests responded to by this memory
system.mem_ctrl.num_writes::total                  66                       # Number of write requests responded to by this memory
system.mem_ctrl.bw_read::.cpu.inst          167092054                       # Total read bandwidth from this memory (bytes/s)
system.mem_ctrl.bw_read::.cpu.data           71805343                       # Total read bandwidth from this memory (bytes/s)
system.mem_ctrl.bw_read::.cpu.dcache.prefetcher     14293007                       # Total read bandwidth from this memory (bytes/s)
system.mem_ctrl.bw_read::.l2cache.prefetcher      1020929                       # Total read bandwidth from this memory (bytes/s)
system.mem_ctrl.bw_read::total              254211332                       # Total read bandwidth from this memory (bytes/s)
system.mem_ctrl.bw_inst_read::.cpu.inst     167092054                       # Instruction read bandwidth from this memory (bytes/s)
system.mem_ctrl.bw_inst_read::total         167092054                       # Instruction read bandwidth from this memory (bytes/s)
system.mem_ctrl.bw_write::.writebacks        22460439                       # Write bandwidth from this memory (bytes/s)
system.mem_ctrl.bw_write::total              22460439                       # Write bandwidth from this memory (bytes/s)
system.mem_ctrl.bw_total::.writebacks        22460439                       # Total bandwidth to/from this memory (bytes/s)
system.mem_ctrl.bw_total::.cpu.inst         167092054                       # Total bandwidth to/from this memory (bytes/s)
system.mem_ctrl.bw_total::.cpu.data          71805343                       # Total bandwidth to/from this memory (bytes/s)
system.mem_ctrl.bw_total::.cpu.dcache.prefetcher     14293007                       # Total bandwidth to/from this memory (bytes/s)
system.mem_ctrl.bw_total::.l2cache.prefetcher      1020929                       # Total bandwidth to/from this memory (bytes/s)
system.mem_ctrl.bw_total::total             276671771                       # Total bandwidth to/from this memory (bytes/s)

---------- End Simulation Statistics   ----------
