
---------- Begin Simulation Statistics ----------
final_tick                                 1084109200                       # Number of ticks from beginning of simulation (restored from checkpoints and never reset)
host_inst_rate                                 182947                       # Simulator instruction rate (inst/s)
host_mem_usage                                4402740                       # Number of bytes of host memory used
host_op_rate                                   317818                       # Simulator op (including micro ops) rate (op/s)
host_seconds                                    11.24                       # Real time elapsed on the host
host_tick_rate                               96489589                       # Simulator tick rate (ticks/s)
sim_freq                                 1000000000000                       # Frequency of simulated ticks
sim_insts                                     2055493                       # Number of instructions simulated
sim_ops                                       3570845                       # Number of ops (including micro ops) simulated
sim_seconds                                  0.001084                       # Number of seconds simulated
sim_ticks                                  1084109200                       # Number of ticks simulated
system.cpu.branchPred.BTBCorrect                    0                       # Number of correct BTB predictions (this stat may not work properly.
system.cpu.branchPred.BTBHitPct              0.000000                       # BTB Hit Percentage
system.cpu.branchPred.BTBHits                       0                       # Number of BTB hits
system.cpu.branchPred.BTBLookups               435684                       # Number of BTB lookups
system.cpu.branchPred.RASInCorrect                  5                       # Number of incorrect RAS predictions.
system.cpu.branchPred.condIncorrect             24225                       # Number of conditional branches incorrect
system.cpu.branchPred.condPredicted            461684                       # Number of conditional branches predicted
system.cpu.branchPred.indirectHits             237704                       # Number of indirect target hits.
system.cpu.branchPred.indirectLookups          435684                       # Number of indirect predictor lookups.
system.cpu.branchPred.indirectMisses           197980                       # Number of indirect misses.
system.cpu.branchPred.lookups                  487863                       # Number of BP lookups
system.cpu.branchPred.usedRAS                   11280                       # Number of times the RAS was used to get a target.
system.cpu.branchPredindirectMispredicted        12154                       # Number of mispredicted indirect branches.
system.cpu.cc_regfile_reads                   2355835                       # number of cc regfile reads
system.cpu.cc_regfile_writes                  1933341                       # number of cc regfile writes
system.cpu.commit.amos                              0                       # Number of atomic instructions committed
system.cpu.commit.branchMispredicts             24307                       # The number of times a branch was mispredicted
system.cpu.commit.branches                     342722                       # Number of branches committed
system.cpu.commit.bw_lim_events                592852                       # number cycles where commit BW limit reached
system.cpu.commit.commitNonSpecStalls             732                       # The number of times commit has been forced to stall to communicate backwards
system.cpu.commit.commitSquashedInsts          889209                       # The number of squashed insts skipped by commit
system.cpu.commit.committedInsts              2055493                       # Number of instructions committed
system.cpu.commit.committedOps                3570845                       # Number of ops (including micro ops) committed
system.cpu.commit.committed_per_cycle::samples      2318731                       # Number of insts commited each cycle
system.cpu.commit.committed_per_cycle::mean     1.540000                       # Number of insts commited each cycle
system.cpu.commit.committed_per_cycle::stdev     1.723876                       # Number of insts commited each cycle
system.cpu.commit.committed_per_cycle::underflows            0      0.00%      0.00% # Number of insts commited each cycle
system.cpu.commit.committed_per_cycle::0      1151170     49.65%     49.65% # Number of insts commited each cycle
system.cpu.commit.committed_per_cycle::1       177608      7.66%     57.31% # Number of insts commited each cycle
system.cpu.commit.committed_per_cycle::2       169474      7.31%     64.62% # Number of insts commited each cycle
system.cpu.commit.committed_per_cycle::3       227627      9.82%     74.43% # Number of insts commited each cycle
system.cpu.commit.committed_per_cycle::4       592852     25.57%    100.00% # Number of insts commited each cycle
system.cpu.commit.committed_per_cycle::overflows            0      0.00%    100.00% # Number of insts commited each cycle
system.cpu.commit.committed_per_cycle::min_value            0                       # Number of insts commited each cycle
system.cpu.commit.committed_per_cycle::max_value            4                       # Number of insts commited each cycle
system.cpu.commit.committed_per_cycle::total      2318731                       # Number of insts commited each cycle
system.cpu.commit.fp_insts                      72844                       # Number of committed floating point instructions.
system.cpu.commit.function_calls                 9460                       # Number of function calls committed.
system.cpu.commit.int_insts                   3516679                       # Number of committed integer instructions.
system.cpu.commit.loads                        488194                       # Number of loads committed
system.cpu.commit.membars                           1                       # Number of memory barriers committed
system.cpu.commit.op_class_0::No_OpClass        20165      0.56%      0.56% # Class of committed instruction
system.cpu.commit.op_class_0::IntAlu          2811995     78.75%     79.31% # Class of committed instruction
system.cpu.commit.op_class_0::IntMult            1787      0.05%     79.36% # Class of committed instruction
system.cpu.commit.op_class_0::IntDiv            37816      1.06%     80.42% # Class of committed instruction
system.cpu.commit.op_class_0::FloatAdd           2834      0.08%     80.50% # Class of committed instruction
system.cpu.commit.op_class_0::FloatCmp              0      0.00%     80.50% # Class of committed instruction
system.cpu.commit.op_class_0::FloatCvt           1200      0.03%     80.54% # Class of committed instruction
system.cpu.commit.op_class_0::FloatMult             0      0.00%     80.54% # Class of committed instruction
system.cpu.commit.op_class_0::FloatMultAcc            0      0.00%     80.54% # Class of committed instruction
system.cpu.commit.op_class_0::FloatDiv              0      0.00%     80.54% # Class of committed instruction
system.cpu.commit.op_class_0::FloatMisc             0      0.00%     80.54% # Class of committed instruction
system.cpu.commit.op_class_0::FloatSqrt             0      0.00%     80.54% # Class of committed instruction
system.cpu.commit.op_class_0::SimdAdd            6184      0.17%     80.71% # Class of committed instruction
system.cpu.commit.op_class_0::SimdAddAcc            0      0.00%     80.71% # Class of committed instruction
system.cpu.commit.op_class_0::SimdAlu           11116      0.31%     81.02% # Class of committed instruction
system.cpu.commit.op_class_0::SimdCmp               0      0.00%     81.02% # Class of committed instruction
system.cpu.commit.op_class_0::SimdCvt           12050      0.34%     81.36% # Class of committed instruction
system.cpu.commit.op_class_0::SimdMisc           6479      0.18%     81.54% # Class of committed instruction
system.cpu.commit.op_class_0::SimdMult              0      0.00%     81.54% # Class of committed instruction
system.cpu.commit.op_class_0::SimdMultAcc            0      0.00%     81.54% # Class of committed instruction
system.cpu.commit.op_class_0::SimdShift          1055      0.03%     81.57% # Class of committed instruction
system.cpu.commit.op_class_0::SimdShiftAcc            0      0.00%     81.57% # Class of committed instruction
system.cpu.commit.op_class_0::SimdDiv               0      0.00%     81.57% # Class of committed instruction
system.cpu.commit.op_class_0::SimdSqrt              0      0.00%     81.57% # Class of committed instruction
system.cpu.commit.op_class_0::SimdFloatAdd            0      0.00%     81.57% # Class of committed instruction
system.cpu.commit.op_class_0::SimdFloatAlu            0      0.00%     81.57% # Class of committed instruction
system.cpu.commit.op_class_0::SimdFloatCmp            0      0.00%     81.57% # Class of committed instruction
system.cpu.commit.op_class_0::SimdFloatCvt            0      0.00%     81.57% # Class of committed instruction
system.cpu.commit.op_class_0::SimdFloatDiv            0      0.00%     81.57% # Class of committed instruction
system.cpu.commit.op_class_0::SimdFloatMisc            0      0.00%     81.57% # Class of committed instruction
system.cpu.commit.op_class_0::SimdFloatMult            0      0.00%     81.57% # Class of committed instruction
system.cpu.commit.op_class_0::SimdFloatMultAcc            0      0.00%     81.57% # Class of committed instruction
system.cpu.commit.op_class_0::SimdFloatSqrt            0      0.00%     81.57% # Class of committed instruction
system.cpu.commit.op_class_0::SimdReduceAdd            0      0.00%     81.57% # Class of committed instruction
system.cpu.commit.op_class_0::SimdReduceAlu            0      0.00%     81.57% # Class of committed instruction
system.cpu.commit.op_class_0::SimdReduceCmp            0      0.00%     81.57% # Class of committed instruction
system.cpu.commit.op_class_0::SimdFloatReduceAdd            0      0.00%     81.57% # Class of committed instruction
system.cpu.commit.op_class_0::SimdFloatReduceCmp            0      0.00%     81.57% # Class of committed instruction
system.cpu.commit.op_class_0::SimdAes               0      0.00%     81.57% # Class of committed instruction
system.cpu.commit.op_class_0::SimdAesMix            0      0.00%     81.57% # Class of committed instruction
system.cpu.commit.op_class_0::SimdSha1Hash            0      0.00%     81.57% # Class of committed instruction
system.cpu.commit.op_class_0::SimdSha1Hash2            0      0.00%     81.57% # Class of committed instruction
system.cpu.commit.op_class_0::SimdSha256Hash            0      0.00%     81.57% # Class of committed instruction
system.cpu.commit.op_class_0::SimdSha256Hash2            0      0.00%     81.57% # Class of committed instruction
system.cpu.commit.op_class_0::SimdShaSigma2            0      0.00%     81.57% # Class of committed instruction
system.cpu.commit.op_class_0::SimdShaSigma3            0      0.00%     81.57% # Class of committed instruction
system.cpu.commit.op_class_0::SimdPredAlu            0      0.00%     81.57% # Class of committed instruction
system.cpu.commit.op_class_0::MemRead          469156     13.14%     94.71% # Class of committed instruction
system.cpu.commit.op_class_0::MemWrite         157901      4.42%     99.13% # Class of committed instruction
system.cpu.commit.op_class_0::FloatMemRead        19038      0.53%     99.66% # Class of committed instruction
system.cpu.commit.op_class_0::FloatMemWrite        12069      0.34%    100.00% # Class of committed instruction
system.cpu.commit.op_class_0::IprAccess             0      0.00%    100.00% # Class of committed instruction
system.cpu.commit.op_class_0::InstPrefetch            0      0.00%    100.00% # Class of committed instruction
system.cpu.commit.op_class_0::total           3570845                       # Class of committed instruction
system.cpu.commit.refs                         658164                       # Number of memory references committed
system.cpu.commit.swp_count                         0                       # Number of s/w prefetches committed
system.cpu.commit.vec_insts                         0                       # Number of committed Vector instructions.
system.cpu.committedInsts                     2055493                       # Number of Instructions Simulated
system.cpu.committedOps                       3570845                       # Number of Ops (including micro ops) Simulated
system.cpu.cpi                               1.318552                       # CPI: Cycles Per Instruction
system.cpu.cpi_total                         1.318552                       # CPI: Total CPI of All Threads
system.cpu.dcache.prefetcher.num_hwpf_issued         7723                       # number of hwpf issued
system.cpu.dcache.prefetcher.pfBufferHit        33407                       # number of redundant prefetches already in prefetch queue
system.cpu.dcache.prefetcher.pfIdentified        48305                       # number of prefetch candidates identified
system.cpu.dcache.prefetcher.pfInCache              0                       # number of redundant prefetches already in cache/mshr dropped
system.cpu.dcache.prefetcher.pfRemovedFull            0                       # number of prefetches dropped due to prefetch queue size
system.cpu.dcache.prefetcher.pfSpanPage          4355                       # number of prefetches that crossed the page
system.cpu.decode.BlockedCycles               1023293                       # Number of cycles decode is blocked
system.cpu.decode.DecodedInsts                4677196                       # Number of instructions handled by decode
system.cpu.decode.IdleCycles                   289900                       # Number of cycles decode is idle
system.cpu.decode.RunCycles                   1134711                       # Number of cycles decode is running
system.cpu.decode.SquashCycles                  24375                       # Number of cycles decode is squashing
system.cpu.decode.UnblockCycles                 88791                       # Number of cycles decode is unblocking
system.cpu.dtb.rdAccesses                      572178                       # TLB accesses on read requests
system.cpu.dtb.rdMisses                          2028                       # TLB misses on read requests
system.cpu.dtb.wrAccesses                      190162                       # TLB accesses on write requests
system.cpu.dtb.wrMisses                           164                       # TLB misses on write requests
system.cpu.fetch.Branches                      487863                       # Number of branches that fetch encountered
system.cpu.fetch.CacheLines                    238985                       # Number of cache lines fetched
system.cpu.fetch.Cycles                       2209837                       # Number of cycles fetch has run and was not squashing or blocked
system.cpu.fetch.IcacheSquashes                  4607                       # Number of outstanding Icache misses that were squashed
system.cpu.fetch.Insts                        2829170                       # Number of instructions fetch has processed
system.cpu.fetch.MiscStallCycles                  109                       # Number of cycles fetch has spent waiting on interrupts, or bad addresses, or out of MSHRs
system.cpu.fetch.PendingQuiesceStallCycles           10                       # Number of stall cycles due to pending quiesce instructions
system.cpu.fetch.PendingTrapStallCycles           599                       # Number of stall cycles due to pending traps
system.cpu.fetch.SquashCycles                   48750                       # Number of cycles fetch has spent squashing
system.cpu.fetch.branchRate                  0.180005                       # Number of branch fetches per cycle
system.cpu.fetch.icacheStallCycles             326140                       # Number of cycles fetch is stalled on an Icache miss
system.cpu.fetch.predictedBranches             248984                       # Number of branches that fetch has predicted taken
system.cpu.fetch.rate                        1.043869                       # Number of inst fetches per cycle
system.cpu.fetch.rateDist::samples            2561070                       # Number of instructions fetched each cycle (Total)
system.cpu.fetch.rateDist::mean              1.934877                       # Number of instructions fetched each cycle (Total)
system.cpu.fetch.rateDist::stdev             1.931257                       # Number of instructions fetched each cycle (Total)
system.cpu.fetch.rateDist::underflows               0      0.00%      0.00% # Number of instructions fetched each cycle (Total)
system.cpu.fetch.rateDist::0                  1218834     47.59%     47.59% # Number of instructions fetched each cycle (Total)
system.cpu.fetch.rateDist::1                    73885      2.88%     50.48% # Number of instructions fetched each cycle (Total)
system.cpu.fetch.rateDist::2                    58099      2.27%     52.74% # Number of instructions fetched each cycle (Total)
system.cpu.fetch.rateDist::3                    75736      2.96%     55.70% # Number of instructions fetched each cycle (Total)
system.cpu.fetch.rateDist::4                  1134516     44.30%    100.00% # Number of instructions fetched each cycle (Total)
system.cpu.fetch.rateDist::overflows                0      0.00%    100.00% # Number of instructions fetched each cycle (Total)
system.cpu.fetch.rateDist::min_value                0                       # Number of instructions fetched each cycle (Total)
system.cpu.fetch.rateDist::max_value                4                       # Number of instructions fetched each cycle (Total)
system.cpu.fetch.rateDist::total              2561070                       # Number of instructions fetched each cycle (Total)
system.cpu.fp_regfile_reads                    118529                       # number of floating regfile reads
system.cpu.fp_regfile_writes                    64783                       # number of floating regfile writes
system.cpu.fuPool.fu_ticks_busy::IntALU(0)    216270000                       # Total ticks fu was busy
system.cpu.fuPool.fu_ticks_busy::IntALU(1)    216269600                       # Total ticks fu was busy
system.cpu.fuPool.fu_ticks_busy::IntALU(2)    216269600                       # Total ticks fu was busy
system.cpu.fuPool.fu_ticks_busy::IntALU(3)    216269600                       # Total ticks fu was busy
system.cpu.fuPool.fu_ticks_busy::IntALU(4)    216269600                       # Total ticks fu was busy
system.cpu.fuPool.fu_ticks_busy::IntALU(5)    216269600                       # Total ticks fu was busy
system.cpu.fuPool.fu_ticks_busy::IntMultDiv(0)      8733600                       # Total ticks fu was busy
system.cpu.fuPool.fu_ticks_busy::IntMultDiv(1)      8732800                       # Total ticks fu was busy
system.cpu.fuPool.fu_ticks_busy::FP_ALU(0)       550400                       # Total ticks fu was busy
system.cpu.fuPool.fu_ticks_busy::FP_ALU(1)       550400                       # Total ticks fu was busy
system.cpu.fuPool.fu_ticks_busy::FP_ALU(2)       550400                       # Total ticks fu was busy
system.cpu.fuPool.fu_ticks_busy::FP_ALU(3)       550000                       # Total ticks fu was busy
system.cpu.fuPool.fu_ticks_busy::FP_MultDiv(0)            0                       # Total ticks fu was busy
system.cpu.fuPool.fu_ticks_busy::FP_MultDiv(1)            0                       # Total ticks fu was busy
system.cpu.fuPool.fu_ticks_busy::SIMD_Unit(0)      4346800                       # Total ticks fu was busy
system.cpu.fuPool.fu_ticks_busy::SIMD_Unit(1)      4302800                       # Total ticks fu was busy
system.cpu.fuPool.fu_ticks_busy::SIMD_Unit(2)      4511200                       # Total ticks fu was busy
system.cpu.fuPool.fu_ticks_busy::SIMD_Unit(3)      4548400                       # Total ticks fu was busy
system.cpu.fuPool.fu_ticks_busy::PredALU(0)            0                       # Total ticks fu was busy
system.cpu.fuPool.fu_ticks_busy::RdWrPort(0)     77759600                       # Total ticks fu was busy
system.cpu.fuPool.fu_ticks_busy::RdWrPort(1)     77684400                       # Total ticks fu was busy
system.cpu.fuPool.fu_ticks_busy::RdWrPort(2)     77692800                       # Total ticks fu was busy
system.cpu.fuPool.fu_ticks_busy::RdWrPort(3)     77712800                       # Total ticks fu was busy
system.cpu.fuPool.fu_ticks_busy::IprPort(0)            0                       # Total ticks fu was busy
system.cpu.fuPool.fu_ticks_busy::total     1645844400                       # Total ticks fu was busy
system.cpu.icache.prefetcher.num_hwpf_issued            0                       # number of hwpf issued
system.cpu.icache.prefetcher.pfBufferHit            0                       # number of redundant prefetches already in prefetch queue
system.cpu.icache.prefetcher.pfIdentified            0                       # number of prefetch candidates identified
system.cpu.icache.prefetcher.pfInCache              0                       # number of redundant prefetches already in cache/mshr dropped
system.cpu.icache.prefetcher.pfRemovedFull            0                       # number of prefetches dropped due to prefetch queue size
system.cpu.icache.prefetcher.pfSpanPage             0                       # number of prefetches that crossed the page
system.cpu.idleCycles                          149204                       # Total number of cycles that the CPU has spent unscheduled due to idling
system.cpu.iew.branchMispredicts                28711                       # Number of branch mispredicts detected at execute
system.cpu.iew.exec_branches                   373511                       # Number of branches executed
system.cpu.iew.exec_nop                             0                       # number of nop insts executed
system.cpu.iew.exec_rate                     1.515078                       # Inst execution rate
system.cpu.iew.exec_refs                       764068                       # number of memory reference insts executed
system.cpu.iew.exec_stores                     190151                       # Number of stores executed
system.cpu.iew.exec_swp                             0                       # number of swp insts executed
system.cpu.iew.iewBlockCycles                  683060                       # Number of cycles IEW is blocking
system.cpu.iew.iewDispLoadInsts                604478                       # Number of dispatched load instructions
system.cpu.iew.iewDispNonSpecInsts                914                       # Number of dispatched non-speculative instructions
system.cpu.iew.iewDispSquashedInsts               616                       # Number of squashed instructions skipped by dispatch
system.cpu.iew.iewDispStoreInsts               200739                       # Number of dispatched store instructions
system.cpu.iew.iewDispatchedInsts             4459978                       # Number of instructions dispatched to IQ
system.cpu.iew.iewExecLoadInsts                573917                       # Number of load instructions executed
system.cpu.iew.iewExecSquashedInsts             34415                       # Number of squashed instructions skipped in execute
system.cpu.iew.iewExecutedInsts               4106277                       # Number of executed instructions
system.cpu.iew.iewIQFullEvents                   3278                       # Number of times the IQ has become full, causing a stall
system.cpu.iew.iewIdleCycles                        0                       # Number of cycles IEW is idle
system.cpu.iew.iewLSQFullEvents                  9454                       # Number of times the LSQ has become full, causing a stall
system.cpu.iew.iewSquashCycles                  24375                       # Number of cycles IEW is squashing
system.cpu.iew.iewUnblockCycles                 15548                       # Number of cycles IEW is unblocking
system.cpu.iew.lsq.thread0.blockedLoads             0                       # Number of blocked loads due to partial load-store forwarding
system.cpu.iew.lsq.thread0.cacheBlocked           609                       # Number of times an access to memory failed due to the cache being blocked
system.cpu.iew.lsq.thread0.forwLoads            40328                       # Number of loads that had data forwarded from stores
system.cpu.iew.lsq.thread0.ignoredResponses          235                       # Number of memory responses ignored because the instruction is squashed
system.cpu.iew.lsq.thread0.invAddrLoads             0                       # Number of loads ignored due to an invalid address
system.cpu.iew.lsq.thread0.invAddrSwpfs             0                       # Number of software prefetches ignored due to an invalid address
system.cpu.iew.lsq.thread0.memOrderViolation           83                       # Number of memory ordering violations
system.cpu.iew.lsq.thread0.rescheduledLoads            0                       # Number of loads that were rescheduled
system.cpu.iew.lsq.thread0.squashedLoads       116282                       # Number of loads squashed
system.cpu.iew.lsq.thread0.squashedStores        30768                       # Number of stores squashed
system.cpu.iew.memOrderViolationEvents             83                       # Number of memory order violations
system.cpu.iew.predictedNotTakenIncorrect        20592                       # Number of branches that were predicted not taken incorrectly
system.cpu.iew.predictedTakenIncorrect           8119                       # Number of branches that were predicted taken incorrectly
system.cpu.iew.wb_consumers                   5768310                       # num instructions consuming a value
system.cpu.iew.wb_count                       4084317                       # cumulative count of insts written-back
system.cpu.iew.wb_fanout                     0.566126                       # average fanout of values written-back
system.cpu.iew.wb_producers                   3265589                       # num instructions producing a value
system.cpu.iew.wb_rate                       1.506976                       # insts written-back per cycle
system.cpu.iew.wb_sent                        4091225                       # cumulative count of insts sent to commit
system.cpu.int_regfile_reads                  6365784                       # number of integer regfile reads
system.cpu.int_regfile_writes                 3533231                       # number of integer regfile writes
system.cpu.ipc                               0.758408                       # IPC: Instructions Per Cycle
system.cpu.ipc_total                         0.758408                       # IPC: Total IPC of All Threads
system.cpu.iq.FU_type_0::No_OpClass             26081      0.63%      0.63% # Type of FU issued
system.cpu.iq.FU_type_0::IntAlu               3244046     78.35%     78.98% # Type of FU issued
system.cpu.iq.FU_type_0::IntMult                 1809      0.04%     79.02% # Type of FU issued
system.cpu.iq.FU_type_0::IntDiv                 41857      1.01%     80.03% # Type of FU issued
system.cpu.iq.FU_type_0::FloatAdd                4263      0.10%     80.13% # Type of FU issued
system.cpu.iq.FU_type_0::FloatCmp                   0      0.00%     80.13% # Type of FU issued
system.cpu.iq.FU_type_0::FloatCvt                1240      0.03%     80.16% # Type of FU issued
system.cpu.iq.FU_type_0::FloatMult                  0      0.00%     80.16% # Type of FU issued
system.cpu.iq.FU_type_0::FloatMultAcc               0      0.00%     80.16% # Type of FU issued
system.cpu.iq.FU_type_0::FloatDiv                   0      0.00%     80.16% # Type of FU issued
system.cpu.iq.FU_type_0::FloatMisc                  0      0.00%     80.16% # Type of FU issued
system.cpu.iq.FU_type_0::FloatSqrt                  0      0.00%     80.16% # Type of FU issued
system.cpu.iq.FU_type_0::SimdAdd                 6788      0.16%     80.33% # Type of FU issued
system.cpu.iq.FU_type_0::SimdAddAcc                 0      0.00%     80.33% # Type of FU issued
system.cpu.iq.FU_type_0::SimdAlu                14780      0.36%     80.68% # Type of FU issued
system.cpu.iq.FU_type_0::SimdCmp                    0      0.00%     80.68% # Type of FU issued
system.cpu.iq.FU_type_0::SimdCvt                13669      0.33%     81.01% # Type of FU issued
system.cpu.iq.FU_type_0::SimdMisc                7034      0.17%     81.18% # Type of FU issued
system.cpu.iq.FU_type_0::SimdMult                   0      0.00%     81.18% # Type of FU issued
system.cpu.iq.FU_type_0::SimdMultAcc                0      0.00%     81.18% # Type of FU issued
system.cpu.iq.FU_type_0::SimdShift               2002      0.05%     81.23% # Type of FU issued
system.cpu.iq.FU_type_0::SimdShiftAcc               0      0.00%     81.23% # Type of FU issued
system.cpu.iq.FU_type_0::SimdDiv                    0      0.00%     81.23% # Type of FU issued
system.cpu.iq.FU_type_0::SimdSqrt                   0      0.00%     81.23% # Type of FU issued
system.cpu.iq.FU_type_0::SimdFloatAdd               0      0.00%     81.23% # Type of FU issued
system.cpu.iq.FU_type_0::SimdFloatAlu               0      0.00%     81.23% # Type of FU issued
system.cpu.iq.FU_type_0::SimdFloatCmp               0      0.00%     81.23% # Type of FU issued
system.cpu.iq.FU_type_0::SimdFloatCvt               0      0.00%     81.23% # Type of FU issued
system.cpu.iq.FU_type_0::SimdFloatDiv               0      0.00%     81.23% # Type of FU issued
system.cpu.iq.FU_type_0::SimdFloatMisc              0      0.00%     81.23% # Type of FU issued
system.cpu.iq.FU_type_0::SimdFloatMult              0      0.00%     81.23% # Type of FU issued
system.cpu.iq.FU_type_0::SimdFloatMultAcc            0      0.00%     81.23% # Type of FU issued
system.cpu.iq.FU_type_0::SimdFloatSqrt              0      0.00%     81.23% # Type of FU issued
system.cpu.iq.FU_type_0::SimdReduceAdd              0      0.00%     81.23% # Type of FU issued
system.cpu.iq.FU_type_0::SimdReduceAlu              0      0.00%     81.23% # Type of FU issued
system.cpu.iq.FU_type_0::SimdReduceCmp              0      0.00%     81.23% # Type of FU issued
system.cpu.iq.FU_type_0::SimdFloatReduceAdd            0      0.00%     81.23% # Type of FU issued
system.cpu.iq.FU_type_0::SimdFloatReduceCmp            0      0.00%     81.23% # Type of FU issued
system.cpu.iq.FU_type_0::SimdAes                    0      0.00%     81.23% # Type of FU issued
system.cpu.iq.FU_type_0::SimdAesMix                 0      0.00%     81.23% # Type of FU issued
system.cpu.iq.FU_type_0::SimdSha1Hash               0      0.00%     81.23% # Type of FU issued
system.cpu.iq.FU_type_0::SimdSha1Hash2              0      0.00%     81.23% # Type of FU issued
system.cpu.iq.FU_type_0::SimdSha256Hash             0      0.00%     81.23% # Type of FU issued
system.cpu.iq.FU_type_0::SimdSha256Hash2            0      0.00%     81.23% # Type of FU issued
system.cpu.iq.FU_type_0::SimdShaSigma2              0      0.00%     81.23% # Type of FU issued
system.cpu.iq.FU_type_0::SimdShaSigma3              0      0.00%     81.23% # Type of FU issued
system.cpu.iq.FU_type_0::SimdPredAlu                0      0.00%     81.23% # Type of FU issued
system.cpu.iq.FU_type_0::MemRead               559817     13.52%     94.75% # Type of FU issued
system.cpu.iq.FU_type_0::MemWrite              179163      4.33%     99.08% # Type of FU issued
system.cpu.iq.FU_type_0::FloatMemRead           24467      0.59%     99.67% # Type of FU issued
system.cpu.iq.FU_type_0::FloatMemWrite          13679      0.33%    100.00% # Type of FU issued
system.cpu.iq.FU_type_0::IprAccess                  0      0.00%    100.00% # Type of FU issued
system.cpu.iq.FU_type_0::InstPrefetch               0      0.00%    100.00% # Type of FU issued
system.cpu.iq.FU_type_0::total                4140695                       # Type of FU issued
system.cpu.iq.fp_alu_accesses                   88884                       # Number of floating point alu accesses
system.cpu.iq.fp_inst_queue_reads              179027                       # Number of floating instruction queue reads
system.cpu.iq.fp_inst_queue_wakeup_accesses        85736                       # Number of floating instruction queue wakeup accesses
system.cpu.iq.fp_inst_queue_writes             127424                       # Number of floating instruction queue writes
system.cpu.iq.fu_busy_cnt                           0                       # FU busy when requested
system.cpu.iq.fu_busy_rate                          0                       # FU busy rate (busy events/executed inst)
system.cpu.iq.fu_full::No_OpClass                   0                       # attempts to use FU when none available
system.cpu.iq.fu_full::IntAlu                       0                       # attempts to use FU when none available
system.cpu.iq.fu_full::IntMult                      0                       # attempts to use FU when none available
system.cpu.iq.fu_full::IntDiv                       0                       # attempts to use FU when none available
system.cpu.iq.fu_full::FloatAdd                     0                       # attempts to use FU when none available
system.cpu.iq.fu_full::FloatCmp                     0                       # attempts to use FU when none available
system.cpu.iq.fu_full::FloatCvt                     0                       # attempts to use FU when none available
system.cpu.iq.fu_full::FloatMult                    0                       # attempts to use FU when none available
system.cpu.iq.fu_full::FloatMultAcc                 0                       # attempts to use FU when none available
system.cpu.iq.fu_full::FloatDiv                     0                       # attempts to use FU when none available
system.cpu.iq.fu_full::FloatMisc                    0                       # attempts to use FU when none available
system.cpu.iq.fu_full::FloatSqrt                    0                       # attempts to use FU when none available
system.cpu.iq.fu_full::SimdAdd                      0                       # attempts to use FU when none available
system.cpu.iq.fu_full::SimdAddAcc                   0                       # attempts to use FU when none available
system.cpu.iq.fu_full::SimdAlu                      0                       # attempts to use FU when none available
system.cpu.iq.fu_full::SimdCmp                      0                       # attempts to use FU when none available
system.cpu.iq.fu_full::SimdCvt                      0                       # attempts to use FU when none available
system.cpu.iq.fu_full::SimdMisc                     0                       # attempts to use FU when none available
system.cpu.iq.fu_full::SimdMult                     0                       # attempts to use FU when none available
system.cpu.iq.fu_full::SimdMultAcc                  0                       # attempts to use FU when none available
system.cpu.iq.fu_full::SimdShift                    0                       # attempts to use FU when none available
system.cpu.iq.fu_full::SimdShiftAcc                 0                       # attempts to use FU when none available
system.cpu.iq.fu_full::SimdDiv                      0                       # attempts to use FU when none available
system.cpu.iq.fu_full::SimdSqrt                     0                       # attempts to use FU when none available
system.cpu.iq.fu_full::SimdFloatAdd                 0                       # attempts to use FU when none available
system.cpu.iq.fu_full::SimdFloatAlu                 0                       # attempts to use FU when none available
system.cpu.iq.fu_full::SimdFloatCmp                 0                       # attempts to use FU when none available
system.cpu.iq.fu_full::SimdFloatCvt                 0                       # attempts to use FU when none available
system.cpu.iq.fu_full::SimdFloatDiv                 0                       # attempts to use FU when none available
system.cpu.iq.fu_full::SimdFloatMisc                0                       # attempts to use FU when none available
system.cpu.iq.fu_full::SimdFloatMult                0                       # attempts to use FU when none available
system.cpu.iq.fu_full::SimdFloatMultAcc             0                       # attempts to use FU when none available
system.cpu.iq.fu_full::SimdFloatSqrt                0                       # attempts to use FU when none available
system.cpu.iq.fu_full::SimdReduceAdd                0                       # attempts to use FU when none available
system.cpu.iq.fu_full::SimdReduceAlu                0                       # attempts to use FU when none available
system.cpu.iq.fu_full::SimdReduceCmp                0                       # attempts to use FU when none available
system.cpu.iq.fu_full::SimdFloatReduceAdd            0                       # attempts to use FU when none available
system.cpu.iq.fu_full::SimdFloatReduceCmp            0                       # attempts to use FU when none available
system.cpu.iq.fu_full::SimdAes                      0                       # attempts to use FU when none available
system.cpu.iq.fu_full::SimdAesMix                   0                       # attempts to use FU when none available
system.cpu.iq.fu_full::SimdSha1Hash                 0                       # attempts to use FU when none available
system.cpu.iq.fu_full::SimdSha1Hash2                0                       # attempts to use FU when none available
system.cpu.iq.fu_full::SimdSha256Hash               0                       # attempts to use FU when none available
system.cpu.iq.fu_full::SimdSha256Hash2              0                       # attempts to use FU when none available
system.cpu.iq.fu_full::SimdShaSigma2                0                       # attempts to use FU when none available
system.cpu.iq.fu_full::SimdShaSigma3                0                       # attempts to use FU when none available
system.cpu.iq.fu_full::SimdPredAlu                  0                       # attempts to use FU when none available
system.cpu.iq.fu_full::MemRead                      0                       # attempts to use FU when none available
system.cpu.iq.fu_full::MemWrite                     0                       # attempts to use FU when none available
system.cpu.iq.fu_full::FloatMemRead                 0                       # attempts to use FU when none available
system.cpu.iq.fu_full::FloatMemWrite                0                       # attempts to use FU when none available
system.cpu.iq.fu_full::IprAccess                    0                       # attempts to use FU when none available
system.cpu.iq.fu_full::InstPrefetch                 0                       # attempts to use FU when none available
system.cpu.iq.int_alu_accesses                4025730                       # Number of integer alu accesses
system.cpu.iq.int_inst_queue_reads           10681707                       # Number of integer instruction queue reads
system.cpu.iq.int_inst_queue_wakeup_accesses      3998581                       # Number of integer instruction queue wakeup accesses
system.cpu.iq.int_inst_queue_writes           5221757                       # Number of integer instruction queue writes
system.cpu.iq.iqInstsAdded                    4458903                       # Number of instructions added to the IQ (excludes non-spec)
system.cpu.iq.iqInstsIssued                   4140695                       # Number of instructions issued
system.cpu.iq.iqNonSpecInstsAdded                1075                       # Number of non-speculative instructions added to the IQ
system.cpu.iq.iqSquashedInstsExamined          889122                       # Number of squashed instructions iterated over during squash; mainly for profiling
system.cpu.iq.iqSquashedInstsIssued             18277                       # Number of squashed instructions issued
system.cpu.iq.iqSquashedNonSpecRemoved            343                       # Number of squashed non-spec instructions that were removed
system.cpu.iq.iqSquashedOperandsExamined      1320324                       # Number of squashed operands that are examined and possibly removed from graph
system.cpu.iq.issued_per_cycle::samples       2561070                       # Number of insts issued each cycle
system.cpu.iq.issued_per_cycle::mean         1.616783                       # Number of insts issued each cycle
system.cpu.iq.issued_per_cycle::stdev        1.669877                       # Number of insts issued each cycle
system.cpu.iq.issued_per_cycle::underflows            0      0.00%      0.00% # Number of insts issued each cycle
system.cpu.iq.issued_per_cycle::0             1162485     45.39%     45.39% # Number of insts issued each cycle
system.cpu.iq.issued_per_cycle::1              172694      6.74%     52.13% # Number of insts issued each cycle
system.cpu.iq.issued_per_cycle::2              299057     11.68%     63.81% # Number of insts issued each cycle
system.cpu.iq.issued_per_cycle::3              337449     13.18%     76.99% # Number of insts issued each cycle
system.cpu.iq.issued_per_cycle::4              589385     23.01%    100.00% # Number of insts issued each cycle
system.cpu.iq.issued_per_cycle::overflows            0      0.00%    100.00% # Number of insts issued each cycle
system.cpu.iq.issued_per_cycle::min_value            0                       # Number of insts issued each cycle
system.cpu.iq.issued_per_cycle::max_value            4                       # Number of insts issued each cycle
system.cpu.iq.issued_per_cycle::total         2561070                       # Number of insts issued each cycle
system.cpu.iq.rate                           1.527777                       # Inst issue rate
system.cpu.iq.vec_alu_accesses                      0                       # Number of vector alu accesses
system.cpu.iq.vec_inst_queue_reads                  0                       # Number of vector instruction queue reads
system.cpu.iq.vec_inst_queue_wakeup_accesses            0                       # Number of vector instruction queue wakeup accesses
system.cpu.iq.vec_inst_queue_writes                 0                       # Number of vector instruction queue writes
system.cpu.itb.rdAccesses                           0                       # TLB accesses on read requests
system.cpu.itb.rdMisses                             0                       # TLB misses on read requests
system.cpu.itb.wrAccesses                      239085                       # TLB accesses on write requests
system.cpu.itb.wrMisses                           339                       # TLB misses on write requests
system.cpu.memDep0.conflictingLoads             11718                       # Number of conflicting loads.
system.cpu.memDep0.conflictingStores             4339                       # Number of conflicting stores.
system.cpu.memDep0.insertedLoads               604478                       # Number of loads inserted to the mem dependence unit.
system.cpu.memDep0.insertedStores              200739                       # Number of stores inserted to the mem dependence unit.
system.cpu.misc_regfile_reads                 1547584                       # number of misc regfile reads
system.cpu.misc_regfile_writes                    675                       # number of misc regfile writes
system.cpu.numCycles                          2710274                       # number of cpu cycles simulated
system.cpu.numWorkItemsCompleted                    0                       # number of work items this cpu completed
system.cpu.numWorkItemsStarted                      0                       # number of work items this cpu started
system.cpu.process.numSyscalls                     56                       # Number of system calls
system.cpu.rename.BlockCycles                  831324                       # Number of cycles rename is blocking
system.cpu.rename.CommittedMaps               4902534                       # Number of HB maps that are committed
system.cpu.rename.FullRegisterEvents              256                       # Number of times there has been no free registers
system.cpu.rename.IQFullEvents                  46516                       # Number of times rename has blocked due to IQ full
system.cpu.rename.IdleCycles                   340174                       # Number of cycles rename is idle
system.cpu.rename.LQFullEvents                  25089                       # Number of times rename has blocked due to LQ full
system.cpu.rename.ROBFullEvents                  6209                       # Number of times rename has blocked due to ROB full
system.cpu.rename.RenameLookups              12027010                       # Number of register rename lookups that rename has made
system.cpu.rename.RenamedInsts                4602340                       # Number of instructions processed by rename
system.cpu.rename.RenamedOperands             6303003                       # Number of destination operands rename has renamed
system.cpu.rename.RunCycles                   1164948                       # Number of cycles rename is running
system.cpu.rename.SQFullEvents                  71995                       # Number of times rename has blocked due to SQ full
system.cpu.rename.SquashCycles                  24375                       # Number of cycles rename is squashing
system.cpu.rename.UnblockCycles                181049                       # Number of cycles rename is unblocking
system.cpu.rename.UndoneMaps                  1400446                       # Number of HB maps that are undone due to squashing
system.cpu.rename.fp_rename_lookups            150701                       # Number of floating rename lookups
system.cpu.rename.int_rename_lookups          7315490                       # Number of integer rename lookups
system.cpu.rename.serializeStallCycles          19200                       # count of cycles rename stalled for serializing inst
system.cpu.rename.serializingInsts                869                       # count of serializing insts renamed
system.cpu.rename.skidInsts                    206674                       # count of insts added to the skid buffer
system.cpu.rename.tempSerializingInsts            913                       # count of temporary serializing insts renamed
system.cpu.rob.rob_reads                      6185933                       # The number of ROB reads
system.cpu.rob.rob_writes                     9163366                       # The number of ROB writes
system.cpu.timesIdled                            1467                       # Number of times that the entire CPU went into an idle state and unscheduled itself
system.l2bus.snoop_filter.hit_multi_requests            8                       # Number of requests hitting in the snoop filter with multiple (>1) holders of the requested data.
system.l2bus.snoop_filter.hit_multi_snoops            0                       # Number of snoops hitting in the snoop filter with multiple (>1) holders of the requested data.
system.l2bus.snoop_filter.hit_single_requests        18113                       # Number of requests hitting in the snoop filter with a single holder of the requested data.
system.l2bus.snoop_filter.hit_single_snoops          412                       # Number of snoops hitting in the snoop filter with a single holder of the requested data.
system.l2bus.snoop_filter.tot_requests          37506                       # Total number of requests made to the snoop filter.
system.l2bus.snoop_filter.tot_snoops              412                       # Total number of snoops made to the snoop filter.
system.l2cache.prefetcher.num_hwpf_issued          775                       # number of hwpf issued
system.l2cache.prefetcher.pfBufferHit               0                       # number of redundant prefetches already in prefetch queue
system.l2cache.prefetcher.pfIdentified            775                       # number of prefetch candidates identified
system.l2cache.prefetcher.pfInCache                 0                       # number of redundant prefetches already in cache/mshr dropped
system.l2cache.prefetcher.pfRemovedFull             0                       # number of prefetches dropped due to prefetch queue size
system.l2cache.prefetcher.pfSpanPage              161                       # number of prefetches that crossed the page
system.membus.snoop_filter.hit_multi_requests            0                       # Number of requests hitting in the snoop filter with multiple (>1) holders of the requested data.
system.membus.snoop_filter.hit_multi_snoops            0                       # Number of snoops hitting in the snoop filter with multiple (>1) holders of the requested data.
system.membus.snoop_filter.hit_single_requests         9218                       # Number of requests hitting in the snoop filter with a single holder of the requested data.
system.membus.snoop_filter.hit_single_snoops            0                       # Number of snoops hitting in the snoop filter with a single holder of the requested data.
system.membus.snoop_filter.tot_requests         22556                       # Total number of requests made to the snoop filter.
system.membus.snoop_filter.tot_snoops               0                       # Total number of snoops made to the snoop filter.
system.membus.pwrStateResidencyTicks::UNDEFINED   1084109200                       # Cumulative time (in ticks) in various power states
system.membus.trans_dist::ReadResp              11993                       # Transaction distribution
system.membus.trans_dist::WritebackDirty         1339                       # Transaction distribution
system.membus.trans_dist::CleanEvict             7879                       # Transaction distribution
system.membus.trans_dist::ReadExReq              1345                       # Transaction distribution
system.membus.trans_dist::ReadExResp             1345                       # Transaction distribution
system.membus.trans_dist::ReadSharedReq         11993                       # Transaction distribution
system.membus.pkt_count_system.l2cache.mem_side::system.mem_ctrl.port        35894                       # Packet count per connected master and slave (bytes)
system.membus.pkt_count_system.l2cache.mem_side::total        35894                       # Packet count per connected master and slave (bytes)
system.membus.pkt_count::total                  35894                       # Packet count per connected master and slave (bytes)
system.membus.pkt_size_system.l2cache.mem_side::system.mem_ctrl.port       939328                       # Cumulative packet size per connected master and slave (bytes)
system.membus.pkt_size_system.l2cache.mem_side::total       939328                       # Cumulative packet size per connected master and slave (bytes)
system.membus.pkt_size::total                  939328                       # Cumulative packet size per connected master and slave (bytes)
system.membus.snoops                                0                       # Total snoops (count)
system.membus.snoopTraffic                          0                       # Total snoop traffic (bytes)
system.membus.snoop_fanout::samples             13338                       # Request fanout histogram
system.membus.snoop_fanout::mean                    0                       # Request fanout histogram
system.membus.snoop_fanout::stdev                   0                       # Request fanout histogram
system.membus.snoop_fanout::underflows              0      0.00%      0.00% # Request fanout histogram
system.membus.snoop_fanout::0                   13338    100.00%    100.00% # Request fanout histogram
system.membus.snoop_fanout::1                       0      0.00%    100.00% # Request fanout histogram
system.membus.snoop_fanout::overflows               0      0.00%    100.00% # Request fanout histogram
system.membus.snoop_fanout::min_value               0                       # Request fanout histogram
system.membus.snoop_fanout::max_value               0                       # Request fanout histogram
system.membus.snoop_fanout::total               13338                       # Request fanout histogram
system.membus.reqLayer2.occupancy            11193977                       # Layer occupancy (ticks)
system.membus.reqLayer2.utilization               1.0                       # Layer utilization (%)
system.membus.respLayer0.occupancy           28969923                       # Layer occupancy (ticks)
system.membus.respLayer0.utilization              2.7                       # Layer utilization (%)
system.l2bus.pwrStateResidencyTicks::UNDEFINED   1084109200                       # Cumulative time (in ticks) in various power states
system.l2bus.trans_dist::ReadResp               17313                       # Transaction distribution
system.l2bus.trans_dist::WritebackDirty          4103                       # Transaction distribution
system.l2bus.trans_dist::CleanEvict             23306                       # Transaction distribution
system.l2bus.trans_dist::HardPFReq               1077                       # Transaction distribution
system.l2bus.trans_dist::ReadExReq               2080                       # Transaction distribution
system.l2bus.trans_dist::ReadExResp              2080                       # Transaction distribution
system.l2bus.trans_dist::ReadSharedReq          17313                       # Transaction distribution
system.l2bus.pkt_count_system.cpu.icache.mem_side::system.l2cache.cpu_side         7545                       # Packet count per connected master and slave (bytes)
system.l2bus.pkt_count_system.cpu.dcache.mem_side::system.l2cache.cpu_side        49352                       # Packet count per connected master and slave (bytes)
system.l2bus.pkt_count::total                   56897                       # Packet count per connected master and slave (bytes)
system.l2bus.pkt_size_system.cpu.icache.mem_side::system.l2cache.cpu_side       166336                       # Cumulative packet size per connected master and slave (bytes)
system.l2bus.pkt_size_system.cpu.dcache.mem_side::system.l2cache.cpu_side      1251584                       # Cumulative packet size per connected master and slave (bytes)
system.l2bus.pkt_size::total                  1417920                       # Cumulative packet size per connected master and slave (bytes)
system.l2bus.snoops                             10375                       # Total snoops (count)
system.l2bus.snoopTraffic                       85824                       # Total snoop traffic (bytes)
system.l2bus.snoop_fanout::samples              29766                       # Request fanout histogram
system.l2bus.snoop_fanout::mean              0.014110                       # Request fanout histogram
system.l2bus.snoop_fanout::stdev             0.117947                       # Request fanout histogram
system.l2bus.snoop_fanout::underflows               0      0.00%      0.00% # Request fanout histogram
system.l2bus.snoop_fanout::0                    29346     98.59%     98.59% # Request fanout histogram
system.l2bus.snoop_fanout::1                      420      1.41%    100.00% # Request fanout histogram
system.l2bus.snoop_fanout::2                        0      0.00%    100.00% # Request fanout histogram
system.l2bus.snoop_fanout::overflows                0      0.00%    100.00% # Request fanout histogram
system.l2bus.snoop_fanout::min_value                0                       # Request fanout histogram
system.l2bus.snoop_fanout::max_value                1                       # Request fanout histogram
system.l2bus.snoop_fanout::total                29766                       # Request fanout histogram
system.l2bus.respLayer1.occupancy            20150799                       # Layer occupancy (ticks)
system.l2bus.respLayer1.utilization               1.9                       # Layer utilization (%)
system.l2bus.reqLayer0.occupancy             18600455                       # Layer occupancy (ticks)
system.l2bus.reqLayer0.utilization                1.7                       # Layer utilization (%)
system.l2bus.respLayer0.occupancy             3121998                       # Layer occupancy (ticks)
system.l2bus.respLayer0.utilization               0.3                       # Layer utilization (%)
system.clk_domain.clock                           400                       # Clock period in ticks
system.clk_domain.voltage_domain.voltage            1                       # Voltage in Volts
system.cpu.pwrStateResidencyTicks::ON      1084109200                       # Cumulative time (in ticks) in various power states
system.cpu.icache.pwrStateResidencyTicks::UNDEFINED   1084109200                       # Cumulative time (in ticks) in various power states
system.cpu.icache.demand_hits::.cpu.inst       235686                       # number of demand (read+write) hits
system.cpu.icache.demand_hits::total           235686                       # number of demand (read+write) hits
system.cpu.icache.overall_hits::.cpu.inst       235686                       # number of overall hits
system.cpu.icache.overall_hits::total          235686                       # number of overall hits
system.cpu.icache.demand_misses::.cpu.inst         3298                       # number of demand (read+write) misses
system.cpu.icache.demand_misses::total           3298                       # number of demand (read+write) misses
system.cpu.icache.overall_misses::.cpu.inst         3298                       # number of overall misses
system.cpu.icache.overall_misses::total          3298                       # number of overall misses
system.cpu.icache.demand_miss_latency::.cpu.inst    168798000                       # number of demand (read+write) miss cycles
system.cpu.icache.demand_miss_latency::total    168798000                       # number of demand (read+write) miss cycles
system.cpu.icache.overall_miss_latency::.cpu.inst    168798000                       # number of overall miss cycles
system.cpu.icache.overall_miss_latency::total    168798000                       # number of overall miss cycles
system.cpu.icache.demand_accesses::.cpu.inst       238984                       # number of demand (read+write) accesses
system.cpu.icache.demand_accesses::total       238984                       # number of demand (read+write) accesses
system.cpu.icache.overall_accesses::.cpu.inst       238984                       # number of overall (read+write) accesses
system.cpu.icache.overall_accesses::total       238984                       # number of overall (read+write) accesses
system.cpu.icache.demand_miss_rate::.cpu.inst     0.013800                       # miss rate for demand accesses
system.cpu.icache.demand_miss_rate::total     0.013800                       # miss rate for demand accesses
system.cpu.icache.overall_miss_rate::.cpu.inst     0.013800                       # miss rate for overall accesses
system.cpu.icache.overall_miss_rate::total     0.013800                       # miss rate for overall accesses
system.cpu.icache.demand_avg_miss_latency::.cpu.inst 51181.928441                       # average overall miss latency
system.cpu.icache.demand_avg_miss_latency::total 51181.928441                       # average overall miss latency
system.cpu.icache.overall_avg_miss_latency::.cpu.inst 51181.928441                       # average overall miss latency
system.cpu.icache.overall_avg_miss_latency::total 51181.928441                       # average overall miss latency
system.cpu.icache.blocked_cycles::no_mshrs           39                       # number of cycles access was blocked
system.cpu.icache.blocked_cycles::no_targets            0                       # number of cycles access was blocked
system.cpu.icache.blocked::no_mshrs                 2                       # number of cycles access was blocked
system.cpu.icache.blocked::no_targets               0                       # number of cycles access was blocked
system.cpu.icache.avg_blocked_cycles::no_mshrs    19.500000                       # average number of cycles each access was blocked
system.cpu.icache.avg_blocked_cycles::no_targets          nan                       # average number of cycles each access was blocked
system.cpu.icache.demand_mshr_hits::.cpu.inst          697                       # number of demand (read+write) MSHR hits
system.cpu.icache.demand_mshr_hits::total          697                       # number of demand (read+write) MSHR hits
system.cpu.icache.overall_mshr_hits::.cpu.inst          697                       # number of overall MSHR hits
system.cpu.icache.overall_mshr_hits::total          697                       # number of overall MSHR hits
system.cpu.icache.demand_mshr_misses::.cpu.inst         2601                       # number of demand (read+write) MSHR misses
system.cpu.icache.demand_mshr_misses::total         2601                       # number of demand (read+write) MSHR misses
system.cpu.icache.overall_mshr_misses::.cpu.inst         2601                       # number of overall MSHR misses
system.cpu.icache.overall_mshr_misses::total         2601                       # number of overall MSHR misses
system.cpu.icache.demand_mshr_miss_latency::.cpu.inst    133337200                       # number of demand (read+write) MSHR miss cycles
system.cpu.icache.demand_mshr_miss_latency::total    133337200                       # number of demand (read+write) MSHR miss cycles
system.cpu.icache.overall_mshr_miss_latency::.cpu.inst    133337200                       # number of overall MSHR miss cycles
system.cpu.icache.overall_mshr_miss_latency::total    133337200                       # number of overall MSHR miss cycles
system.cpu.icache.demand_mshr_miss_rate::.cpu.inst     0.010884                       # mshr miss rate for demand accesses
system.cpu.icache.demand_mshr_miss_rate::total     0.010884                       # mshr miss rate for demand accesses
system.cpu.icache.overall_mshr_miss_rate::.cpu.inst     0.010884                       # mshr miss rate for overall accesses
system.cpu.icache.overall_mshr_miss_rate::total     0.010884                       # mshr miss rate for overall accesses
system.cpu.icache.demand_avg_mshr_miss_latency::.cpu.inst 51263.821607                       # average overall mshr miss latency
system.cpu.icache.demand_avg_mshr_miss_latency::total 51263.821607                       # average overall mshr miss latency
system.cpu.icache.overall_avg_mshr_miss_latency::.cpu.inst 51263.821607                       # average overall mshr miss latency
system.cpu.icache.overall_avg_mshr_miss_latency::total 51263.821607                       # average overall mshr miss latency
system.cpu.icache.replacements                   2345                       # number of replacements
system.cpu.icache.ReadReq_hits::.cpu.inst       235686                       # number of ReadReq hits
system.cpu.icache.ReadReq_hits::total          235686                       # number of ReadReq hits
system.cpu.icache.ReadReq_misses::.cpu.inst         3298                       # number of ReadReq misses
system.cpu.icache.ReadReq_misses::total          3298                       # number of ReadReq misses
system.cpu.icache.ReadReq_miss_latency::.cpu.inst    168798000                       # number of ReadReq miss cycles
system.cpu.icache.ReadReq_miss_latency::total    168798000                       # number of ReadReq miss cycles
system.cpu.icache.ReadReq_accesses::.cpu.inst       238984                       # number of ReadReq accesses(hits+misses)
system.cpu.icache.ReadReq_accesses::total       238984                       # number of ReadReq accesses(hits+misses)
system.cpu.icache.ReadReq_miss_rate::.cpu.inst     0.013800                       # miss rate for ReadReq accesses
system.cpu.icache.ReadReq_miss_rate::total     0.013800                       # miss rate for ReadReq accesses
system.cpu.icache.ReadReq_avg_miss_latency::.cpu.inst 51181.928441                       # average ReadReq miss latency
system.cpu.icache.ReadReq_avg_miss_latency::total 51181.928441                       # average ReadReq miss latency
system.cpu.icache.ReadReq_mshr_hits::.cpu.inst          697                       # number of ReadReq MSHR hits
system.cpu.icache.ReadReq_mshr_hits::total          697                       # number of ReadReq MSHR hits
system.cpu.icache.ReadReq_mshr_misses::.cpu.inst         2601                       # number of ReadReq MSHR misses
system.cpu.icache.ReadReq_mshr_misses::total         2601                       # number of ReadReq MSHR misses
system.cpu.icache.ReadReq_mshr_miss_latency::.cpu.inst    133337200                       # number of ReadReq MSHR miss cycles
system.cpu.icache.ReadReq_mshr_miss_latency::total    133337200                       # number of ReadReq MSHR miss cycles
system.cpu.icache.ReadReq_mshr_miss_rate::.cpu.inst     0.010884                       # mshr miss rate for ReadReq accesses
system.cpu.icache.ReadReq_mshr_miss_rate::total     0.010884                       # mshr miss rate for ReadReq accesses
system.cpu.icache.ReadReq_avg_mshr_miss_latency::.cpu.inst 51263.821607                       # average ReadReq mshr miss latency
system.cpu.icache.ReadReq_avg_mshr_miss_latency::total 51263.821607                       # average ReadReq mshr miss latency
system.cpu.icache.prefetcher.pwrStateResidencyTicks::UNDEFINED   1084109200                       # Cumulative time (in ticks) in various power states
system.cpu.icache.tags.pwrStateResidencyTicks::UNDEFINED   1084109200                       # Cumulative time (in ticks) in various power states
system.cpu.icache.tags.tagsinuse           253.460747                       # Cycle average of tags in use
system.cpu.icache.tags.total_refs              205905                       # Total number of references to valid blocks.
system.cpu.icache.tags.sampled_refs              2345                       # Sample count of references to valid blocks.
system.cpu.icache.tags.avg_refs             87.805970                       # Average number of references to valid blocks.
system.cpu.icache.tags.warmup_cycle             66400                       # Cycle when the warmup percentage was hit.
system.cpu.icache.tags.occ_blocks::.cpu.inst   253.460747                       # Average occupied blocks per requestor
system.cpu.icache.tags.occ_percent::.cpu.inst     0.990081                       # Average percentage of cache occupancy
system.cpu.icache.tags.occ_percent::total     0.990081                       # Average percentage of cache occupancy
system.cpu.icache.tags.occ_task_id_blocks::1024          256                       # Occupied blocks per task id
system.cpu.icache.tags.age_task_id_blocks_1024::0           71                       # Occupied blocks per task id
system.cpu.icache.tags.age_task_id_blocks_1024::1          158                       # Occupied blocks per task id
system.cpu.icache.tags.age_task_id_blocks_1024::2           27                       # Occupied blocks per task id
system.cpu.icache.tags.occ_task_id_percent::1024            1                       # Percentage of cache occupancy per task id
system.cpu.icache.tags.tag_accesses            480569                       # Number of tag accesses
system.cpu.icache.tags.data_accesses           480569                       # Number of data accesses
system.cpu.dtb.walker.pwrStateResidencyTicks::UNDEFINED   1084109200                       # Cumulative time (in ticks) in various power states
system.cpu.interrupts.clk_domain.clock           6400                       # Clock period in ticks
system.cpu.itb.walker.pwrStateResidencyTicks::UNDEFINED   1084109200                       # Cumulative time (in ticks) in various power states
system.cpu.dcache.pwrStateResidencyTicks::UNDEFINED   1084109200                       # Cumulative time (in ticks) in various power states
system.cpu.dcache.demand_hits::.cpu.data       665936                       # number of demand (read+write) hits
system.cpu.dcache.demand_hits::total           665936                       # number of demand (read+write) hits
system.cpu.dcache.overall_hits::.cpu.data       665936                       # number of overall hits
system.cpu.dcache.overall_hits::total          665936                       # number of overall hits
system.cpu.dcache.demand_misses::.cpu.data        34765                       # number of demand (read+write) misses
system.cpu.dcache.demand_misses::total          34765                       # number of demand (read+write) misses
system.cpu.dcache.overall_misses::.cpu.data        34765                       # number of overall misses
system.cpu.dcache.overall_misses::total         34765                       # number of overall misses
system.cpu.dcache.demand_miss_latency::.cpu.data   1684977999                       # number of demand (read+write) miss cycles
system.cpu.dcache.demand_miss_latency::total   1684977999                       # number of demand (read+write) miss cycles
system.cpu.dcache.overall_miss_latency::.cpu.data   1684977999                       # number of overall miss cycles
system.cpu.dcache.overall_miss_latency::total   1684977999                       # number of overall miss cycles
system.cpu.dcache.demand_accesses::.cpu.data       700701                       # number of demand (read+write) accesses
system.cpu.dcache.demand_accesses::total       700701                       # number of demand (read+write) accesses
system.cpu.dcache.overall_accesses::.cpu.data       700701                       # number of overall (read+write) accesses
system.cpu.dcache.overall_accesses::total       700701                       # number of overall (read+write) accesses
system.cpu.dcache.demand_miss_rate::.cpu.data     0.049615                       # miss rate for demand accesses
system.cpu.dcache.demand_miss_rate::total     0.049615                       # miss rate for demand accesses
system.cpu.dcache.overall_miss_rate::.cpu.data     0.049615                       # miss rate for overall accesses
system.cpu.dcache.overall_miss_rate::total     0.049615                       # miss rate for overall accesses
system.cpu.dcache.demand_avg_miss_latency::.cpu.data 48467.654221                       # average overall miss latency
system.cpu.dcache.demand_avg_miss_latency::total 48467.654221                       # average overall miss latency
system.cpu.dcache.overall_avg_miss_latency::.cpu.data 48467.654221                       # average overall miss latency
system.cpu.dcache.overall_avg_miss_latency::total 48467.654221                       # average overall miss latency
system.cpu.dcache.blocked_cycles::no_mshrs        27536                       # number of cycles access was blocked
system.cpu.dcache.blocked_cycles::no_targets          138                       # number of cycles access was blocked
system.cpu.dcache.blocked::no_mshrs               745                       # number of cycles access was blocked
system.cpu.dcache.blocked::no_targets               1                       # number of cycles access was blocked
system.cpu.dcache.avg_blocked_cycles::no_mshrs    36.961074                       # average number of cycles each access was blocked
system.cpu.dcache.avg_blocked_cycles::no_targets          138                       # average number of cycles each access was blocked
system.cpu.dcache.unused_prefetches              1742                       # number of HardPF blocks evicted w/o reference
system.cpu.dcache.writebacks::.writebacks         2764                       # number of writebacks
system.cpu.dcache.writebacks::total              2764                       # number of writebacks
system.cpu.dcache.demand_mshr_hits::.cpu.data        22201                       # number of demand (read+write) MSHR hits
system.cpu.dcache.demand_mshr_hits::total        22201                       # number of demand (read+write) MSHR hits
system.cpu.dcache.overall_mshr_hits::.cpu.data        22201                       # number of overall MSHR hits
system.cpu.dcache.overall_mshr_hits::total        22201                       # number of overall MSHR hits
system.cpu.dcache.demand_mshr_misses::.cpu.data        12564                       # number of demand (read+write) MSHR misses
system.cpu.dcache.demand_mshr_misses::total        12564                       # number of demand (read+write) MSHR misses
system.cpu.dcache.overall_mshr_misses::.cpu.data        12564                       # number of overall MSHR misses
system.cpu.dcache.overall_mshr_misses::.cpu.dcache.prefetcher         4228                       # number of overall MSHR misses
system.cpu.dcache.overall_mshr_misses::total        16792                       # number of overall MSHR misses
system.cpu.dcache.demand_mshr_miss_latency::.cpu.data    576223199                       # number of demand (read+write) MSHR miss cycles
system.cpu.dcache.demand_mshr_miss_latency::total    576223199                       # number of demand (read+write) MSHR miss cycles
system.cpu.dcache.overall_mshr_miss_latency::.cpu.data    576223199                       # number of overall MSHR miss cycles
system.cpu.dcache.overall_mshr_miss_latency::.cpu.dcache.prefetcher    241455532                       # number of overall MSHR miss cycles
system.cpu.dcache.overall_mshr_miss_latency::total    817678731                       # number of overall MSHR miss cycles
system.cpu.dcache.demand_mshr_miss_rate::.cpu.data     0.017931                       # mshr miss rate for demand accesses
system.cpu.dcache.demand_mshr_miss_rate::total     0.017931                       # mshr miss rate for demand accesses
system.cpu.dcache.overall_mshr_miss_rate::.cpu.data     0.017931                       # mshr miss rate for overall accesses
system.cpu.dcache.overall_mshr_miss_rate::.cpu.dcache.prefetcher          inf                       # mshr miss rate for overall accesses
system.cpu.dcache.overall_mshr_miss_rate::total     0.023965                       # mshr miss rate for overall accesses
system.cpu.dcache.demand_avg_mshr_miss_latency::.cpu.data 45863.037170                       # average overall mshr miss latency
system.cpu.dcache.demand_avg_mshr_miss_latency::total 45863.037170                       # average overall mshr miss latency
system.cpu.dcache.overall_avg_mshr_miss_latency::.cpu.data 45863.037170                       # average overall mshr miss latency
system.cpu.dcache.overall_avg_mshr_miss_latency::.cpu.dcache.prefetcher 57108.687796                       # average overall mshr miss latency
system.cpu.dcache.overall_avg_mshr_miss_latency::total 48694.540912                       # average overall mshr miss latency
system.cpu.dcache.replacements                  15768                       # number of replacements
system.cpu.dcache.ReadReq_hits::.cpu.data       498075                       # number of ReadReq hits
system.cpu.dcache.ReadReq_hits::total          498075                       # number of ReadReq hits
system.cpu.dcache.ReadReq_misses::.cpu.data        32650                       # number of ReadReq misses
system.cpu.dcache.ReadReq_misses::total         32650                       # number of ReadReq misses
system.cpu.dcache.ReadReq_miss_latency::.cpu.data   1580250000                       # number of ReadReq miss cycles
system.cpu.dcache.ReadReq_miss_latency::total   1580250000                       # number of ReadReq miss cycles
system.cpu.dcache.ReadReq_accesses::.cpu.data       530725                       # number of ReadReq accesses(hits+misses)
system.cpu.dcache.ReadReq_accesses::total       530725                       # number of ReadReq accesses(hits+misses)
system.cpu.dcache.ReadReq_miss_rate::.cpu.data     0.061520                       # miss rate for ReadReq accesses
system.cpu.dcache.ReadReq_miss_rate::total     0.061520                       # miss rate for ReadReq accesses
system.cpu.dcache.ReadReq_avg_miss_latency::.cpu.data 48399.693721                       # average ReadReq miss latency
system.cpu.dcache.ReadReq_avg_miss_latency::total 48399.693721                       # average ReadReq miss latency
system.cpu.dcache.ReadReq_mshr_hits::.cpu.data        22166                       # number of ReadReq MSHR hits
system.cpu.dcache.ReadReq_mshr_hits::total        22166                       # number of ReadReq MSHR hits
system.cpu.dcache.ReadReq_mshr_misses::.cpu.data        10484                       # number of ReadReq MSHR misses
system.cpu.dcache.ReadReq_mshr_misses::total        10484                       # number of ReadReq MSHR misses
system.cpu.dcache.ReadReq_mshr_miss_latency::.cpu.data    474478000                       # number of ReadReq MSHR miss cycles
system.cpu.dcache.ReadReq_mshr_miss_latency::total    474478000                       # number of ReadReq MSHR miss cycles
system.cpu.dcache.ReadReq_mshr_miss_rate::.cpu.data     0.019754                       # mshr miss rate for ReadReq accesses
system.cpu.dcache.ReadReq_mshr_miss_rate::total     0.019754                       # mshr miss rate for ReadReq accesses
system.cpu.dcache.ReadReq_avg_mshr_miss_latency::.cpu.data 45257.344525                       # average ReadReq mshr miss latency
system.cpu.dcache.ReadReq_avg_mshr_miss_latency::total 45257.344525                       # average ReadReq mshr miss latency
system.cpu.dcache.WriteReq_hits::.cpu.data       167861                       # number of WriteReq hits
system.cpu.dcache.WriteReq_hits::total         167861                       # number of WriteReq hits
system.cpu.dcache.WriteReq_misses::.cpu.data         2115                       # number of WriteReq misses
system.cpu.dcache.WriteReq_misses::total         2115                       # number of WriteReq misses
system.cpu.dcache.WriteReq_miss_latency::.cpu.data    104727999                       # number of WriteReq miss cycles
system.cpu.dcache.WriteReq_miss_latency::total    104727999                       # number of WriteReq miss cycles
system.cpu.dcache.WriteReq_accesses::.cpu.data       169976                       # number of WriteReq accesses(hits+misses)
system.cpu.dcache.WriteReq_accesses::total       169976                       # number of WriteReq accesses(hits+misses)
system.cpu.dcache.WriteReq_miss_rate::.cpu.data     0.012443                       # miss rate for WriteReq accesses
system.cpu.dcache.WriteReq_miss_rate::total     0.012443                       # miss rate for WriteReq accesses
system.cpu.dcache.WriteReq_avg_miss_latency::.cpu.data 49516.784397                       # average WriteReq miss latency
system.cpu.dcache.WriteReq_avg_miss_latency::total 49516.784397                       # average WriteReq miss latency
system.cpu.dcache.WriteReq_mshr_hits::.cpu.data           35                       # number of WriteReq MSHR hits
system.cpu.dcache.WriteReq_mshr_hits::total           35                       # number of WriteReq MSHR hits
system.cpu.dcache.WriteReq_mshr_misses::.cpu.data         2080                       # number of WriteReq MSHR misses
system.cpu.dcache.WriteReq_mshr_misses::total         2080                       # number of WriteReq MSHR misses
system.cpu.dcache.WriteReq_mshr_miss_latency::.cpu.data    101745199                       # number of WriteReq MSHR miss cycles
system.cpu.dcache.WriteReq_mshr_miss_latency::total    101745199                       # number of WriteReq MSHR miss cycles
[...]
system.l2cache.overall_mshr_miss_rate::.cpu.data     0.543662                       # mshr miss rate for overall accesses
system.l2cache.overall_mshr_miss_rate::.cpu.dcache.prefetcher     0.815789                       # mshr miss rate for overall accesses
system.l2cache.overall_mshr_miss_rate::.l2cache.prefetcher          inf                       # mshr miss rate for overall accesses
system.l2cache.overall_mshr_miss_rate::total     0.256977                       # mshr miss rate for overall accesses
system.l2cache.demand_avg_mshr_miss_latency::.cpu.inst 59034.074074                       # average overall mshr miss latency
system.l2cache.demand_avg_mshr_miss_latency::.cpu.data 62091.191710                       # average overall mshr miss latency
system.l2cache.demand_avg_mshr_miss_latency::.cpu.dcache.prefetcher 61108.612903                       # average overall mshr miss latency
system.l2cache.demand_avg_mshr_miss_latency::total 60122.930303                       # average overall mshr miss latency
system.l2cache.overall_avg_mshr_miss_latency::.cpu.inst 59034.074074                       # average overall mshr miss latency
system.l2cache.overall_avg_mshr_miss_latency::.cpu.data 62091.191710                       # average overall mshr miss latency
system.l2cache.overall_avg_mshr_miss_latency::.cpu.dcache.prefetcher 61108.612903                       # average overall mshr miss latency
system.l2cache.overall_avg_mshr_miss_latency::.l2cache.prefetcher 54665.333333                       # average overall mshr miss latency
system.l2cache.overall_avg_mshr_miss_latency::total 60098.235294                       # average overall mshr miss latency
system.l2cache.replacements                       672                       # number of replacements
system.l2cache.WritebackDirty_hits::.writebacks          117                       # number of WritebackDirty hits
system.l2cache.WritebackDirty_hits::total          117                       # number of WritebackDirty hits
system.l2cache.WritebackDirty_accesses::.writebacks          117                       # number of WritebackDirty accesses(hits+misses)
system.l2cache.WritebackDirty_accesses::total          117                       # number of WritebackDirty accesses(hits+misses)
system.l2cache.CleanEvict_mshr_misses::.writebacks           25                       # number of CleanEvict MSHR misses
system.l2cache.CleanEvict_mshr_misses::total           25                       # number of CleanEvict MSHR misses
system.l2cache.CleanEvict_mshr_miss_rate::.writebacks          inf                       # mshr miss rate for CleanEvict accesses
system.l2cache.CleanEvict_mshr_miss_rate::total          inf                       # mshr miss rate for CleanEvict accesses
system.l2cache.HardPFReq_mshr_misses::.l2cache.prefetcher            3                       # number of HardPFReq MSHR misses
system.l2cache.HardPFReq_mshr_misses::total            3                       # number of HardPFReq MSHR misses
system.l2cache.HardPFReq_mshr_miss_latency::.l2cache.prefetcher       163996                       # number of HardPFReq MSHR miss cycles
system.l2cache.HardPFReq_mshr_miss_latency::total       163996                       # number of HardPFReq MSHR miss cycles
system.l2cache.HardPFReq_mshr_miss_rate::.l2cache.prefetcher          inf                       # mshr miss rate for HardPFReq accesses
system.l2cache.HardPFReq_mshr_miss_rate::total          inf                       # mshr miss rate for HardPFReq accesses
system.l2cache.HardPFReq_avg_mshr_miss_latency::.l2cache.prefetcher 54665.333333                       # average HardPFReq mshr miss latency
system.l2cache.HardPFReq_avg_mshr_miss_latency::total 54665.333333                       # average HardPFReq mshr miss latency
system.l2cache.UpgradeReq_hits::.cpu.data            1                       # number of UpgradeReq hits
system.l2cache.UpgradeReq_hits::total               1                       # number of UpgradeReq hits
system.l2cache.UpgradeReq_accesses::.cpu.data            1                       # number of UpgradeReq accesses(hits+misses)
system.l2cache.UpgradeReq_accesses::total            1                       # number of UpgradeReq accesses(hits+misses)
system.l2cache.ReadExReq_hits::.cpu.data            9                       # number of ReadExReq hits
system.l2cache.ReadExReq_hits::total                9                       # number of ReadExReq hits
system.l2cache.ReadExReq_misses::.cpu.data           35                       # number of ReadExReq misses
system.l2cache.ReadExReq_misses::total             35                       # number of ReadExReq misses
system.l2cache.ReadExReq_miss_latency::.cpu.data      2502000                       # number of ReadExReq miss cycles
system.l2cache.ReadExReq_miss_latency::total      2502000                       # number of ReadExReq miss cycles
system.l2cache.ReadExReq_accesses::.cpu.data           44                       # number of ReadExReq accesses(hits+misses)
system.l2cache.ReadExReq_accesses::total           44                       # number of ReadExReq accesses(hits+misses)
system.l2cache.ReadExReq_miss_rate::.cpu.data     0.795455                       # miss rate for ReadExReq accesses
system.l2cache.ReadExReq_miss_rate::total     0.795455                       # miss rate for ReadExReq accesses
system.l2cache.ReadExReq_avg_miss_latency::.cpu.data 71485.714286                       # average ReadExReq miss latency
system.l2cache.ReadExReq_avg_miss_latency::total 71485.714286                       # average ReadExReq miss latency
system.l2cache.ReadExReq_mshr_misses::.cpu.data           35                       # number of ReadExReq MSHR misses
system.l2cache.ReadExReq_mshr_misses::total           35                       # number of ReadExReq MSHR misses
system.l2cache.ReadExReq_mshr_miss_latency::.cpu.data      2222000                       # number of ReadExReq MSHR miss cycles
system.l2cache.ReadExReq_mshr_miss_latency::total      2222000                       # number of ReadExReq MSHR miss cycles
system.l2cache.ReadExReq_mshr_miss_rate::.cpu.data     0.795455                       # mshr miss rate for ReadExReq accesses
system.l2cache.ReadExReq_mshr_miss_rate::total     0.795455                       # mshr miss rate for ReadExReq accesses
system.l2cache.ReadExReq_avg_mshr_miss_latency::.cpu.data 63485.714286                       # average ReadExReq mshr miss latency
system.l2cache.ReadExReq_avg_mshr_miss_latency::total 63485.714286                       # average ReadExReq mshr miss latency
system.l2cache.ReadSharedReq_hits::.cpu.inst         1744                       # number of ReadSharedReq hits
system.l2cache.ReadSharedReq_hits::.cpu.data          152                       # number of ReadSharedReq hits
system.l2cache.ReadSharedReq_hits::.cpu.dcache.prefetcher           14                       # number of ReadSharedReq hits
system.l2cache.ReadSharedReq_hits::total         1910                       # number of ReadSharedReq hits
system.l2cache.ReadSharedReq_misses::.cpu.inst          405                       # number of ReadSharedReq misses
system.l2cache.ReadSharedReq_misses::.cpu.data          159                       # number of ReadSharedReq misses
system.l2cache.ReadSharedReq_misses::.cpu.dcache.prefetcher           62                       # number of ReadSharedReq misses
system.l2cache.ReadSharedReq_misses::total          626                       # number of ReadSharedReq misses
system.l2cache.ReadSharedReq_miss_latency::.cpu.inst     27140800                       # number of ReadSharedReq miss cycles
system.l2cache.ReadSharedReq_miss_latency::.cpu.data     11082000                       # number of ReadSharedReq miss cycles
system.l2cache.ReadSharedReq_miss_latency::.cpu.dcache.prefetcher      4284734                       # number of ReadSharedReq miss cycles
system.l2cache.ReadSharedReq_miss_latency::total     42507534                       # number of ReadSharedReq miss cycles
system.l2cache.ReadSharedReq_accesses::.cpu.inst         2149                       # number of ReadSharedReq accesses(hits+misses)
system.l2cache.ReadSharedReq_accesses::.cpu.data          311                       # number of ReadSharedReq accesses(hits+misses)
system.l2cache.ReadSharedReq_accesses::.cpu.dcache.prefetcher           76                       # number of ReadSharedReq accesses(hits+misses)
system.l2cache.ReadSharedReq_accesses::total         2536                       # number of ReadSharedReq accesses(hits+misses)
system.l2cache.ReadSharedReq_miss_rate::.cpu.inst     0.188460                       # miss rate for ReadSharedReq accesses
system.l2cache.ReadSharedReq_miss_rate::.cpu.data     0.511254                       # miss rate for ReadSharedReq accesses
system.l2cache.ReadSharedReq_miss_rate::.cpu.dcache.prefetcher     0.815789                       # miss rate for ReadSharedReq accesses
system.l2cache.ReadSharedReq_miss_rate::total     0.246845                       # miss rate for ReadSharedReq accesses
system.l2cache.ReadSharedReq_avg_miss_latency::.cpu.inst 67014.320988                       # average ReadSharedReq miss latency
system.l2cache.ReadSharedReq_avg_miss_latency::.cpu.data 69698.113208                       # average ReadSharedReq miss latency
system.l2cache.ReadSharedReq_avg_miss_latency::.cpu.dcache.prefetcher 69108.612903                       # average ReadSharedReq miss latency
system.l2cache.ReadSharedReq_avg_miss_latency::total 67903.408946                       # average ReadSharedReq miss latency
system.l2cache.ReadSharedReq_mshr_hits::.cpu.data            1                       # number of ReadSharedReq MSHR hits
system.l2cache.ReadSharedReq_mshr_hits::total            1                       # number of ReadSharedReq MSHR hits
system.l2cache.ReadSharedReq_mshr_misses::.cpu.inst          405                       # number of ReadSharedReq MSHR misses
system.l2cache.ReadSharedReq_mshr_misses::.cpu.data          158                       # number of ReadSharedReq MSHR misses
system.l2cache.ReadSharedReq_mshr_misses::.cpu.dcache.prefetcher           62                       # number of ReadSharedReq MSHR misses
system.l2cache.ReadSharedReq_mshr_misses::total          625                       # number of ReadSharedReq MSHR misses
system.l2cache.ReadSharedReq_mshr_miss_latency::.cpu.inst     23908800                       # number of ReadSharedReq MSHR miss cycles
system.l2cache.ReadSharedReq_mshr_miss_latency::.cpu.data      9761600                       # number of ReadSharedReq MSHR miss cycles
system.l2cache.ReadSharedReq_mshr_miss_latency::.cpu.dcache.prefetcher      3788734                       # number of ReadSharedReq MSHR miss cycles
system.l2cache.ReadSharedReq_mshr_miss_latency::total     37459134                       # number of ReadSharedReq MSHR miss cycles
system.l2cache.ReadSharedReq_mshr_miss_rate::.cpu.inst     0.188460                       # mshr miss rate for ReadSharedReq accesses
system.l2cache.ReadSharedReq_mshr_miss_rate::.cpu.data     0.508039                       # mshr miss rate for ReadSharedReq accesses
system.l2cache.ReadSharedReq_mshr_miss_rate::.cpu.dcache.prefetcher     0.815789                       # mshr miss rate for ReadSharedReq accesses
system.l2cache.ReadSharedReq_mshr_miss_rate::total     0.246451                       # mshr miss rate for ReadSharedReq accesses
system.l2cache.ReadSharedReq_avg_mshr_miss_latency::.cpu.inst 59034.074074                       # average ReadSharedReq mshr miss latency
system.l2cache.ReadSharedReq_avg_mshr_miss_latency::.cpu.data 61782.278481                       # average ReadSharedReq mshr miss latency
system.l2cache.ReadSharedReq_avg_mshr_miss_latency::.cpu.dcache.prefetcher 61108.612903                       # average ReadSharedReq mshr miss latency
system.l2cache.ReadSharedReq_avg_mshr_miss_latency::total 59934.614400                       # average ReadSharedReq mshr miss latency
system.l2cache.prefetcher.pwrStateResidencyTicks::UNDEFINED    135780800                       # Cumulative time (in ticks) in various power states
system.l2cache.tags.pwrStateResidencyTicks::UNDEFINED    135780800                       # Cumulative time (in ticks) in various power states
system.l2cache.tags.tagsinuse                    4096                       # Cycle average of tags in use
system.l2cache.tags.total_refs                  17702                       # Total number of references to valid blocks.
system.l2cache.tags.sampled_refs                 4768                       # Sample count of references to valid blocks.
system.l2cache.tags.avg_refs                 3.712668                       # Average number of references to valid blocks.
system.l2cache.tags.warmup_cycle                    0                       # Cycle when the warmup percentage was hit.
system.l2cache.tags.occ_blocks::.writebacks    36.445097                       # Average occupied blocks per requestor
system.l2cache.tags.occ_blocks::.cpu.inst  1118.126087                       # Average occupied blocks per requestor
system.l2cache.tags.occ_blocks::.cpu.data  1849.078732                       # Average occupied blocks per requestor
system.l2cache.tags.occ_blocks::.cpu.dcache.prefetcher   940.977584                       # Average occupied blocks per requestor
system.l2cache.tags.occ_blocks::.l2cache.prefetcher   151.372500                       # Average occupied blocks per requestor
system.l2cache.tags.occ_percent::.writebacks     0.008898                       # Average percentage of cache occupancy
system.l2cache.tags.occ_percent::.cpu.inst     0.272980                       # Average percentage of cache occupancy
system.l2cache.tags.occ_percent::.cpu.data     0.451435                       # Average percentage of cache occupancy
system.l2cache.tags.occ_percent::.cpu.dcache.prefetcher     0.229731                       # Average percentage of cache occupancy
system.l2cache.tags.occ_percent::.l2cache.prefetcher     0.036956                       # Average percentage of cache occupancy
system.l2cache.tags.occ_percent::total              1                       # Average percentage of cache occupancy
system.l2cache.tags.occ_task_id_blocks::1022         1028                       # Occupied blocks per task id
system.l2cache.tags.occ_task_id_blocks::1024         3068                       # Occupied blocks per task id
system.l2cache.tags.age_task_id_blocks_1022::0           11                       # Occupied blocks per task id
system.l2cache.tags.age_task_id_blocks_1022::1           15                       # Occupied blocks per task id
system.l2cache.tags.age_task_id_blocks_1022::2          962                       # Occupied blocks per task id
system.l2cache.tags.age_task_id_blocks_1022::3           40                       # Occupied blocks per task id
system.l2cache.tags.age_task_id_blocks_1024::0          168                       # Occupied blocks per task id
system.l2cache.tags.age_task_id_blocks_1024::1          153                       # Occupied blocks per task id
system.l2cache.tags.age_task_id_blocks_1024::2         2545                       # Occupied blocks per task id
system.l2cache.tags.age_task_id_blocks_1024::3          202                       # Occupied blocks per task id
system.l2cache.tags.occ_task_id_percent::1022     0.250977                       # Percentage of cache occupancy per task id
system.l2cache.tags.occ_task_id_percent::1024     0.749023                       # Percentage of cache occupancy per task id
system.l2cache.tags.tag_accesses                41936                       # Number of tag accesses
system.l2cache.tags.data_accesses               41936                       # Number of data accesses
system.mem_ctrl.pwrStateResidencyTicks::UNDEFINED    135780800                       # Cumulative time (in ticks) in various power states
system.mem_ctrl.bytes_read::.cpu.inst           25856                       # Number of bytes read from this memory
system.mem_ctrl.bytes_read::.cpu.data           12352                       # Number of bytes read from this memory
system.mem_ctrl.bytes_read::.cpu.dcache.prefetcher         3968                       # Number of bytes read from this memory
system.mem_ctrl.bytes_read::.l2cache.prefetcher          192                       # Number of bytes read from this memory
system.mem_ctrl.bytes_read::total               42368                       # Number of bytes read from this memory
system.mem_ctrl.bytes_inst_read::.cpu.inst        25856                       # Number of instructions bytes read from this memory
system.mem_ctrl.bytes_inst_read::total          25856                       # Number of instructions bytes read from this memory
system.mem_ctrl.bytes_written::.writebacks         2368                       # Number of bytes written to this memory
system.mem_ctrl.bytes_written::total             2368                       # Number of bytes written to this memory
system.mem_ctrl.num_reads::.cpu.inst              404                       # Number of read requests responded to by this memory
system.mem_ctrl.num_reads::.cpu.data              193                       # Number of read requests responded to by this memory
system.mem_ctrl.num_reads::.cpu.dcache.prefetcher           62                       # Number of read requests responded to by this memory
system.mem_ctrl.num_reads::.l2cache.prefetcher            3                       # Number of read requests responded to by this memory
system.mem_ctrl.num_reads::total                  662                       # Number of read requests responded to by this memory
system.mem_ctrl.num_writes::.writebacks            37                       # Number of write requests responded to by this memory
system.mem_ctrl.num_writes::total                  37                       # Number of write requests responded to by this memory
system.mem_ctrl.bw_read::.cpu.inst          190424567                       # Total read bandwidth from this memory (bytes/s)
system.mem_ctrl.bw_read::.cpu.data           90970152                       # Total read bandwidth from this memory (bytes/s)
system.mem_ctrl.bw_read::.cpu.dcache.prefetcher     29223572                       # Total read bandwidth from this memory (bytes/s)
system.mem_ctrl.bw_read::.l2cache.prefetcher      1414044                       # Total read bandwidth from this memory (bytes/s)
system.mem_ctrl.bw_read::total              312032334                       # Total read bandwidth from this memory (bytes/s)
system.mem_ctrl.bw_inst_read::.cpu.inst     190424567                       # Instruction read bandwidth from this memory (bytes/s)
system.mem_ctrl.bw_inst_read::total         190424567                       # Instruction read bandwidth from this memory (bytes/s)
system.mem_ctrl.bw_write::.writebacks        17439874                       # Write bandwidth from this memory (bytes/s)
system.mem_ctrl.bw_write::total              17439874                       # Write bandwidth from this memory (bytes/s)
system.mem_ctrl.bw_total::.writebacks        17439874                       # Total bandwidth to/from this memory (bytes/s)
system.mem_ctrl.bw_total::.cpu.inst         190424567                       # Total bandwidth to/from this memory (bytes/s)
system.mem_ctrl.bw_total::.cpu.data          90970152                       # Total bandwidth to/from this memory (bytes/s)
system.mem_ctrl.bw_total::.cpu.dcache.prefetcher     29223572                       # Total bandwidth to/from this memory (bytes/s)
system.mem_ctrl.bw_total::.l2cache.prefetcher      1414044                       # Total bandwidth to/from this memory (bytes/s)
system.mem_ctrl.bw_total::total             329472208                       # Total bandwidth to/from this memory (bytes/s)

---------- End Simulation Statistics   ----------
