
---------- Begin Simulation Statistics ----------
final_tick                                 1139015200                       # Number of ticks from beginning of simulation (restored from checkpoints and never reset)
host_inst_rate                                 141835                       # Simulator instruction rate (inst/s)
host_mem_usage                                4407880                       # Number of bytes of host memory used
host_op_rate                                   247700                       # Simulator op (including micro ops) rate (op/s)
host_seconds                                    15.04                       # Real time elapsed on the host
host_tick_rate                               75740784                       # Simulator tick rate (ticks/s)
sim_freq                                 1000000000000                       # Frequency of simulated ticks
sim_insts                                     2132950                       # Number of instructions simulated
sim_ops                                       3724990                       # Number of ops (including micro ops) simulated
sim_seconds                                  0.001139                       # Number of seconds simulated
sim_ticks                                  1139015200                       # Number of ticks simulated
system.cpu.branchPred.BTBCorrect                    0                       # Number of correct BTB predictions (this stat may not work properly.
system.cpu.branchPred.BTBHitPct              0.000000                       # BTB Hit Percentage
system.cpu.branchPred.BTBHits                       0                       # Number of BTB hits
system.cpu.branchPred.BTBLookups               451370                       # Number of BTB lookups
system.cpu.branchPred.RASInCorrect                  9                       # Number of incorrect RAS predictions.
system.cpu.branchPred.condIncorrect             25721                       # Number of conditional branches incorrect
system.cpu.branchPred.condPredicted            478988                       # Number of conditional branches predicted
system.cpu.branchPred.indirectHits             245972                       # Number of indirect target hits.
system.cpu.branchPred.indirectLookups          451370                       # Number of indirect predictor lookups.
system.cpu.branchPred.indirectMisses           205398                       # Number of indirect misses.
system.cpu.branchPred.lookups                  508731                       # Number of BP lookups
system.cpu.branchPred.usedRAS                   13086                       # Number of times the RAS was used to get a target.
system.cpu.branchPredindirectMispredicted        13087                       # Number of mispredicted indirect branches.
system.cpu.cc_regfile_reads                   2433846                       # number of cc regfile reads
system.cpu.cc_regfile_writes                  1975822                       # number of cc regfile writes
system.cpu.commit.amos                              0                       # Number of atomic instructions committed
system.cpu.commit.branchMispredicts             25847                       # The number of times a branch was mispredicted
system.cpu.commit.branches                     358930                       # Number of branches committed
system.cpu.commit.bw_lim_events                618730                       # number cycles where commit BW limit reached
system.cpu.commit.commitNonSpecStalls             926                       # The number of times commit has been forced to stall to communicate backwards
system.cpu.commit.commitSquashedInsts          914594                       # The number of squashed insts skipped by commit
system.cpu.commit.committedInsts              2132950                       # Number of instructions committed
system.cpu.commit.committedOps                3724990                       # Number of ops (including micro ops) committed
system.cpu.commit.committed_per_cycle::samples      2423266                       # Number of insts commited each cycle
system.cpu.commit.committed_per_cycle::mean     1.537178                       # Number of insts commited each cycle
system.cpu.commit.committed_per_cycle::stdev     1.722789                       # Number of insts commited each cycle
system.cpu.commit.committed_per_cycle::underflows            0      0.00%      0.00% # Number of insts commited each cycle
system.cpu.commit.committed_per_cycle::0      1202728     49.63%     49.63% # Number of insts commited each cycle
system.cpu.commit.committed_per_cycle::1       189522      7.82%     57.45% # Number of insts commited each cycle
system.cpu.commit.committed_per_cycle::2       176310      7.28%     64.73% # Number of insts commited each cycle
system.cpu.commit.committed_per_cycle::3       235976      9.74%     74.47% # Number of insts commited each cycle
system.cpu.commit.committed_per_cycle::4       618730     25.53%    100.00% # Number of insts commited each cycle
system.cpu.commit.committed_per_cycle::overflows            0      0.00%    100.00% # Number of insts commited each cycle
system.cpu.commit.committed_per_cycle::min_value            0                       # Number of insts commited each cycle
system.cpu.commit.committed_per_cycle::max_value            4                       # Number of insts commited each cycle
system.cpu.commit.committed_per_cycle::total      2423266                       # Number of insts commited each cycle
system.cpu.commit.fp_insts                      78485                       # Number of committed floating point instructions.
system.cpu.commit.function_calls                11038                       # Number of function calls committed.
system.cpu.commit.int_insts                   3667382                       # Number of committed integer instructions.
system.cpu.commit.loads                        511845                       # Number of loads committed
system.cpu.commit.membars                           1                       # Number of memory barriers committed
system.cpu.commit.op_class_0::No_OpClass        21033      0.56%      0.56% # Class of committed instruction
system.cpu.commit.op_class_0::IntAlu          2924771     78.52%     79.08% # Class of committed instruction
system.cpu.commit.op_class_0::IntMult            1619      0.04%     79.13% # Class of committed instruction
system.cpu.commit.op_class_0::IntDiv            38776      1.04%     80.17% # Class of committed instruction
system.cpu.commit.op_class_0::FloatAdd           3161      0.08%     80.25% # Class of committed instruction
system.cpu.commit.op_class_0::FloatCmp              0      0.00%     80.25% # Class of committed instruction
system.cpu.commit.op_class_0::FloatCvt           1520      0.04%     80.29% # Class of committed instruction
system.cpu.commit.op_class_0::FloatMult             0      0.00%     80.29% # Class of committed instruction
system.cpu.commit.op_class_0::FloatMultAcc            0      0.00%     80.29% # Class of committed instruction
system.cpu.commit.op_class_0::FloatDiv              0      0.00%     80.29% # Class of committed instruction
system.cpu.commit.op_class_0::FloatMisc             0      0.00%     80.29% # Class of committed instruction
system.cpu.commit.op_class_0::FloatSqrt             0      0.00%     80.29% # Class of committed instruction
system.cpu.commit.op_class_0::SimdAdd            6430      0.17%     80.46% # Class of committed instruction
system.cpu.commit.op_class_0::SimdAddAcc            0      0.00%     80.46% # Class of committed instruction
system.cpu.commit.op_class_0::SimdAlu           11617      0.31%     80.78% # Class of committed instruction
system.cpu.commit.op_class_0::SimdCmp               0      0.00%     80.78% # Class of committed instruction
system.cpu.commit.op_class_0::SimdCvt           12634      0.34%     81.12% # Class of committed instruction
system.cpu.commit.op_class_0::SimdMisc           7617      0.20%     81.32% # Class of committed instruction
system.cpu.commit.op_class_0::SimdMult              0      0.00%     81.32% # Class of committed instruction
system.cpu.commit.op_class_0::SimdMultAcc            0      0.00%     81.32% # Class of committed instruction
system.cpu.commit.op_class_0::SimdShift          1308      0.04%     81.36% # Class of committed instruction
system.cpu.commit.op_class_0::SimdShiftAcc            0      0.00%     81.36% # Class of committed instruction
system.cpu.commit.op_class_0::SimdDiv               0      0.00%     81.36% # Class of committed instruction
system.cpu.commit.op_class_0::SimdSqrt              0      0.00%     81.36% # Class of committed instruction
system.cpu.commit.op_class_0::SimdFloatAdd            0      0.00%     81.36% # Class of committed instruction
system.cpu.commit.op_class_0::SimdFloatAlu            0      0.00%     81.36% # Class of committed instruction
system.cpu.commit.op_class_0::SimdFloatCmp            0      0.00%     81.36% # Class of committed instruction
system.cpu.commit.op_class_0::SimdFloatCvt            0      0.00%     81.36% # Class of committed instruction
system.cpu.commit.op_class_0::SimdFloatDiv            0      0.00%     81.36% # Class of committed instruction
system.cpu.commit.op_class_0::SimdFloatMisc            0      0.00%     81.36% # Class of committed instruction
system.cpu.commit.op_class_0::SimdFloatMult            0      0.00%     81.36% # Class of committed instruction
system.cpu.commit.op_class_0::SimdFloatMultAcc            0      0.00%     81.36% # Class of committed instruction
system.cpu.commit.op_class_0::SimdFloatSqrt            0      0.00%     81.36% # Class of committed instruction
system.cpu.commit.op_class_0::SimdReduceAdd            0      0.00%     81.36% # Class of committed instruction
system.cpu.commit.op_class_0::SimdReduceAlu            0      0.00%     81.36% # Class of committed instruction
system.cpu.commit.op_class_0::SimdReduceCmp            0      0.00%     81.36% # Class of committed instruction
system.cpu.commit.op_class_0::SimdFloatReduceAdd            0      0.00%     81.36% # Class of committed instruction
system.cpu.commit.op_class_0::SimdFloatReduceCmp            0      0.00%     81.36% # Class of committed instruction
system.cpu.commit.op_class_0::SimdAes               0      0.00%     81.36% # Class of committed instruction
system.cpu.commit.op_class_0::SimdAesMix            0      0.00%     81.36% # Class of committed instruction
system.cpu.commit.op_class_0::SimdSha1Hash            0      0.00%     81.36% # Class of committed instruction
system.cpu.commit.op_class_0::SimdSha1Hash2            0      0.00%     81.36% # Class of committed instruction
system.cpu.commit.op_class_0::SimdSha256Hash            0      0.00%     81.36% # Class of committed instruction
system.cpu.commit.op_class_0::SimdSha256Hash2            0      0.00%     81.36% # Class of committed instruction
system.cpu.commit.op_class_0::SimdShaSigma2            0      0.00%     81.36% # Class of committed instruction
system.cpu.commit.op_class_0::SimdShaSigma3            0      0.00%     81.36% # Class of committed instruction
system.cpu.commit.op_class_0::SimdPredAlu            0      0.00%     81.36% # Class of committed instruction
system.cpu.commit.op_class_0::MemRead          491437     13.19%     94.55% # Class of committed instruction
system.cpu.commit.op_class_0::MemWrite         169830      4.56%     99.11% # Class of committed instruction
system.cpu.commit.op_class_0::FloatMemRead        20408      0.55%     99.66% # Class of committed instruction
system.cpu.commit.op_class_0::FloatMemWrite        12829      0.34%    100.00% # Class of committed instruction
system.cpu.commit.op_class_0::IprAccess             0      0.00%    100.00% # Class of committed instruction
system.cpu.commit.op_class_0::InstPrefetch            0      0.00%    100.00% # Class of committed instruction
system.cpu.commit.op_class_0::total           3724990                       # Class of committed instruction
system.cpu.commit.refs                         694504                       # Number of memory references committed
system.cpu.commit.swp_count                         0                       # Number of s/w prefetches committed
system.cpu.commit.vec_insts                         0                       # Number of committed Vector instructions.
system.cpu.committedInsts                     2132950                       # Number of Instructions Simulated
system.cpu.committedOps                       3724990                       # Number of Ops (including micro ops) Simulated
system.cpu.cpi                               1.335024                       # CPI: Cycles Per Instruction
system.cpu.cpi_total                         1.335024                       # CPI: Total CPI of All Threads
system.cpu.dcache.prefetcher.num_hwpf_issued         8133                       # number of hwpf issued
system.cpu.dcache.prefetcher.pfBufferHit        33605                       # number of redundant prefetches already in prefetch queue
system.cpu.dcache.prefetcher.pfIdentified        48793                       # number of prefetch candidates identified
system.cpu.dcache.prefetcher.pfInCache              0                       # number of redundant prefetches already in cache/mshr dropped
system.cpu.dcache.prefetcher.pfRemovedFull            0                       # number of prefetches dropped due to prefetch queue size
system.cpu.dcache.prefetcher.pfSpanPage          4415                       # number of prefetches that crossed the page
system.cpu.decode.BlockedCycles               1052104                       # Number of cycles decode is blocked
system.cpu.decode.DecodedInsts                4867973                       # Number of instructions handled by decode
system.cpu.decode.IdleCycles                   319739                       # Number of cycles decode is idle
system.cpu.decode.RunCycles                   1184625                       # Number of cycles decode is running
system.cpu.decode.SquashCycles                  25911                       # Number of cycles decode is squashing
system.cpu.decode.UnblockCycles                 91224                       # Number of cycles decode is unblocking
system.cpu.dtb.rdAccesses                      597518                       # TLB accesses on read requests
system.cpu.dtb.rdMisses                          2122                       # TLB misses on read requests
system.cpu.dtb.wrAccesses                      203122                       # TLB accesses on write requests
system.cpu.dtb.wrMisses                           175                       # TLB misses on write requests
system.cpu.fetch.Branches                      508731                       # Number of branches that fetch encountered
system.cpu.fetch.CacheLines                    254471                       # Number of cache lines fetched
system.cpu.fetch.Cycles                       2288451                       # Number of cycles fetch has run and was not squashing or blocked
system.cpu.fetch.IcacheSquashes                  5066                       # Number of outstanding Icache misses that were squashed
system.cpu.fetch.IcacheWaitRetryStallCycles           10                       # Number of stall cycles due to full MSHR
system.cpu.fetch.Insts                        2926777                       # Number of instructions fetch has processed
system.cpu.fetch.MiscStallCycles                  164                       # Number of cycles fetch has spent waiting on interrupts, or bad addresses, or out of MSHRs
system.cpu.fetch.PendingQuiesceStallCycles            7                       # Number of stall cycles due to pending quiesce instructions
system.cpu.fetch.PendingTrapStallCycles           848                       # Number of stall cycles due to pending traps
system.cpu.fetch.SquashCycles                   51822                       # Number of cycles fetch has spent squashing
system.cpu.fetch.branchRate                  0.178656                       # Number of branch fetches per cycle
system.cpu.fetch.icacheStallCycles             358212                       # Number of cycles fetch is stalled on an Icache miss
system.cpu.fetch.predictedBranches             259058                       # Number of branches that fetch has predicted taken
system.cpu.fetch.rate                        1.027827                       # Number of inst fetches per cycle
system.cpu.fetch.rateDist::samples            2673603                       # Number of instructions fetched each cycle (Total)
system.cpu.fetch.rateDist::mean              1.927632                       # Number of instructions fetched each cycle (Total)
system.cpu.fetch.rateDist::stdev             1.929818                       # Number of instructions fetched each cycle (Total)
system.cpu.fetch.rateDist::underflows               0      0.00%      0.00% # Number of instructions fetched each cycle (Total)
system.cpu.fetch.rateDist::0                  1275962     47.72%     47.72% # Number of instructions fetched each cycle (Total)
system.cpu.fetch.rateDist::1                    76967      2.88%     50.60% # Number of instructions fetched each cycle (Total)
system.cpu.fetch.rateDist::2                    62665      2.34%     52.95% # Number of instructions fetched each cycle (Total)
system.cpu.fetch.rateDist::3                    80609      3.01%     55.96% # Number of instructions fetched each cycle (Total)
system.cpu.fetch.rateDist::4                  1177400     44.04%    100.00% # Number of instructions fetched each cycle (Total)
system.cpu.fetch.rateDist::overflows                0      0.00%    100.00% # Number of instructions fetched each cycle (Total)
system.cpu.fetch.rateDist::min_value                0                       # Number of instructions fetched each cycle (Total)
system.cpu.fetch.rateDist::max_value                4                       # Number of instructions fetched each cycle (Total)
system.cpu.fetch.rateDist::total              2673603                       # Number of instructions fetched each cycle (Total)
system.cpu.fp_regfile_reads                    127293                       # number of floating regfile reads
system.cpu.fp_regfile_writes                    70181                       # number of floating regfile writes
system.cpu.fuPool.fu_ticks_busy::IntALU(0)    224638000                       # Total ticks fu was busy
system.cpu.fuPool.fu_ticks_busy::IntALU(1)    224638000                       # Total ticks fu was busy
system.cpu.fuPool.fu_ticks_busy::IntALU(2)    224637600                       # Total ticks fu was busy
system.cpu.fuPool.fu_ticks_busy::IntALU(3)    224637600                       # Total ticks fu was busy
system.cpu.fuPool.fu_ticks_busy::IntALU(4)    224637600                       # Total ticks fu was busy
system.cpu.fuPool.fu_ticks_busy::IntALU(5)    224637600                       # Total ticks fu was busy
system.cpu.fuPool.fu_ticks_busy::IntMultDiv(0)      8906800                       # Total ticks fu was busy
system.cpu.fuPool.fu_ticks_busy::IntMultDiv(1)      8906400                       # Total ticks fu was busy
system.cpu.fuPool.fu_ticks_busy::FP_ALU(0)       638800                       # Total ticks fu was busy
system.cpu.fuPool.fu_ticks_busy::FP_ALU(1)       638800                       # Total ticks fu was busy
system.cpu.fuPool.fu_ticks_busy::FP_ALU(2)       638800                       # Total ticks fu was busy
system.cpu.fuPool.fu_ticks_busy::FP_ALU(3)       638800                       # Total ticks fu was busy
system.cpu.fuPool.fu_ticks_busy::FP_MultDiv(0)            0                       # Total ticks fu was busy
system.cpu.fuPool.fu_ticks_busy::FP_MultDiv(1)            0                       # Total ticks fu was busy
system.cpu.fuPool.fu_ticks_busy::SIMD_Unit(0)      4876800                       # Total ticks fu was busy
system.cpu.fuPool.fu_ticks_busy::SIMD_Unit(1)      4893200                       # Total ticks fu was busy
system.cpu.fuPool.fu_ticks_busy::SIMD_Unit(2)      4684400                       # Total ticks fu was busy
system.cpu.fuPool.fu_ticks_busy::SIMD_Unit(3)      4654800                       # Total ticks fu was busy
system.cpu.fuPool.fu_ticks_busy::PredALU(0)            0                       # Total ticks fu was busy
system.cpu.fuPool.fu_ticks_busy::RdWrPort(0)     81642400                       # Total ticks fu was busy
system.cpu.fuPool.fu_ticks_busy::RdWrPort(1)     81640400                       # Total ticks fu was busy
system.cpu.fuPool.fu_ticks_busy::RdWrPort(2)     81626800                       # Total ticks fu was busy
system.cpu.fuPool.fu_ticks_busy::RdWrPort(3)     81695200                       # Total ticks fu was busy
system.cpu.fuPool.fu_ticks_busy::IprPort(0)            0                       # Total ticks fu was busy
system.cpu.fuPool.fu_ticks_busy::total     1713908800                       # Total ticks fu was busy
system.cpu.icache.prefetcher.num_hwpf_issued            0                       # number of hwpf issued
system.cpu.icache.prefetcher.pfBufferHit            0                       # number of redundant prefetches already in prefetch queue
system.cpu.icache.prefetcher.pfIdentified            0                       # number of prefetch candidates identified
system.cpu.icache.prefetcher.pfInCache              0                       # number of redundant prefetches already in cache/mshr dropped
system.cpu.icache.prefetcher.pfRemovedFull            0                       # number of prefetches dropped due to prefetch queue size
system.cpu.icache.prefetcher.pfSpanPage             0                       # number of prefetches that crossed the page
system.cpu.idleCycles                          173936                       # Total number of cycles that the CPU has spent unscheduled due to idling
system.cpu.iew.branchMispredicts                30598                       # Number of branch mispredicts detected at execute
system.cpu.iew.exec_branches                   390607                       # Number of branches executed
system.cpu.iew.exec_nop                             0                       # number of nop insts executed
system.cpu.iew.exec_rate                     1.501474                       # Inst execution rate
system.cpu.iew.exec_refs                       802421                       # number of memory reference insts executed
system.cpu.iew.exec_stores                     203107                       # Number of stores executed
system.cpu.iew.exec_swp                             0                       # number of swp insts executed
system.cpu.iew.iewBlockCycles                  703571                       # Number of cycles IEW is blocking
system.cpu.iew.iewDispLoadInsts                631822                       # Number of dispatched load instructions
system.cpu.iew.iewDispNonSpecInsts               1228                       # Number of dispatched non-speculative instructions
system.cpu.iew.iewDispSquashedInsts               629                       # Number of squashed instructions skipped by dispatch
system.cpu.iew.iewDispStoreInsts               214223                       # Number of dispatched store instructions
system.cpu.iew.iewDispatchedInsts             4639539                       # Number of instructions dispatched to IQ
system.cpu.iew.iewExecLoadInsts                599314                       # Number of load instructions executed
system.cpu.iew.iewExecSquashedInsts             36951                       # Number of squashed instructions skipped in execute
system.cpu.iew.iewExecutedInsts               4275506                       # Number of executed instructions
system.cpu.iew.iewIQFullEvents                   3257                       # Number of times the IQ has become full, causing a stall
system.cpu.iew.iewIdleCycles                        0                       # Number of cycles IEW is idle
system.cpu.iew.iewLSQFullEvents                  9125                       # Number of times the LSQ has become full, causing a stall
system.cpu.iew.iewSquashCycles                  25911                       # Number of cycles IEW is squashing
system.cpu.iew.iewUnblockCycles                 15233                       # Number of cycles IEW is unblocking
system.cpu.iew.lsq.thread0.blockedLoads             0                       # Number of blocked loads due to partial load-store forwarding
system.cpu.iew.lsq.thread0.cacheBlocked           594                       # Number of times an access to memory failed due to the cache being blocked
system.cpu.iew.lsq.thread0.forwLoads            41028                       # Number of loads that had data forwarded from stores
system.cpu.iew.lsq.thread0.ignoredResponses          274                       # Number of memory responses ignored because the instruction is squashed
system.cpu.iew.lsq.thread0.invAddrLoads             0                       # Number of loads ignored due to an invalid address
system.cpu.iew.lsq.thread0.invAddrSwpfs             0                       # Number of software prefetches ignored due to an invalid address
system.cpu.iew.lsq.thread0.memOrderViolation           78                       # Number of memory ordering violations
system.cpu.iew.lsq.thread0.rescheduledLoads            0                       # Number of loads that were rescheduled
system.cpu.iew.lsq.thread0.squashedLoads       119975                       # Number of loads squashed
system.cpu.iew.lsq.thread0.squashedStores        31563                       # Number of stores squashed
system.cpu.iew.memOrderViolationEvents             78                       # Number of memory order violations
system.cpu.iew.predictedNotTakenIncorrect        21998                       # Number of branches that were predicted not taken incorrectly
system.cpu.iew.predictedTakenIncorrect           8600                       # Number of branches that were predicted taken incorrectly
system.cpu.iew.wb_consumers                   5941272                       # num instructions consuming a value
system.cpu.iew.wb_count                       4252697                       # cumulative count of insts written-back
system.cpu.iew.wb_fanout                     0.568325                       # average fanout of values written-back
system.cpu.iew.wb_producers                   3376572                       # num instructions producing a value
system.cpu.iew.wb_rate                       1.493464                       # insts written-back per cycle
system.cpu.iew.wb_sent                        4259977                       # cumulative count of insts sent to commit
system.cpu.int_regfile_reads                  6627498                       # number of integer regfile reads
system.cpu.int_regfile_writes                 3667236                       # number of integer regfile writes
system.cpu.ipc                               0.749050                       # IPC: Instructions Per Cycle
system.cpu.ipc_total                         0.749050                       # IPC: Total IPC of All Threads
system.cpu.iq.FU_type_0::No_OpClass             27685      0.64%      0.64% # Type of FU issued
system.cpu.iq.FU_type_0::IntAlu               3369567     78.14%     78.78% # Type of FU issued
system.cpu.iq.FU_type_0::IntMult                 1670      0.04%     78.82% # Type of FU issued
system.cpu.iq.FU_type_0::IntDiv                 42863      0.99%     79.81% # Type of FU issued
system.cpu.iq.FU_type_0::FloatAdd                4820      0.11%     79.92% # Type of FU issued
system.cpu.iq.FU_type_0::FloatCmp                   0      0.00%     79.92% # Type of FU issued
system.cpu.iq.FU_type_0::FloatCvt                1568      0.04%     79.96% # Type of FU issued
system.cpu.iq.FU_type_0::FloatMult                  0      0.00%     79.96% # Type of FU issued
system.cpu.iq.FU_type_0::FloatMultAcc               0      0.00%     79.96% # Type of FU issued
system.cpu.iq.FU_type_0::FloatDiv                   0      0.00%     79.96% # Type of FU issued
system.cpu.iq.FU_type_0::FloatMisc                  0      0.00%     79.96% # Type of FU issued
system.cpu.iq.FU_type_0::FloatSqrt                  0      0.00%     79.96% # Type of FU issued
system.cpu.iq.FU_type_0::SimdAdd                 7137      0.17%     80.12% # Type of FU issued
system.cpu.iq.FU_type_0::SimdAddAcc                 0      0.00%     80.12% # Type of FU issued
system.cpu.iq.FU_type_0::SimdAlu                15382      0.36%     80.48% # Type of FU issued
system.cpu.iq.FU_type_0::SimdCmp                    0      0.00%     80.48% # Type of FU issued
system.cpu.iq.FU_type_0::SimdCvt                14546      0.34%     80.82% # Type of FU issued
system.cpu.iq.FU_type_0::SimdMisc                8274      0.19%     81.01% # Type of FU issued
system.cpu.iq.FU_type_0::SimdMult                   0      0.00%     81.01% # Type of FU issued
system.cpu.iq.FU_type_0::SimdMultAcc                0      0.00%     81.01% # Type of FU issued
system.cpu.iq.FU_type_0::SimdShift               2434      0.06%     81.07% # Type of FU issued
system.cpu.iq.FU_type_0::SimdShiftAcc               0      0.00%     81.07% # Type of FU issued
system.cpu.iq.FU_type_0::SimdDiv                    0      0.00%     81.07% # Type of FU issued
system.cpu.iq.FU_type_0::SimdSqrt                   0      0.00%     81.07% # Type of FU issued
system.cpu.iq.FU_type_0::SimdFloatAdd               0      0.00%     81.07% # Type of FU issued
system.cpu.iq.FU_type_0::SimdFloatAlu               0      0.00%     81.07% # Type of FU issued
system.cpu.iq.FU_type_0::SimdFloatCmp               0      0.00%     81.07% # Type of FU issued
system.cpu.iq.FU_type_0::SimdFloatCvt               0      0.00%     81.07% # Type of FU issued
system.cpu.iq.FU_type_0::SimdFloatDiv               0      0.00%     81.07% # Type of FU issued
system.cpu.iq.FU_type_0::SimdFloatMisc              0      0.00%     81.07% # Type of FU issued
system.cpu.iq.FU_type_0::SimdFloatMult              0      0.00%     81.07% # Type of FU issued
system.cpu.iq.FU_type_0::SimdFloatMultAcc            0      0.00%     81.07% # Type of FU issued
system.cpu.iq.FU_type_0::SimdFloatSqrt              0      0.00%     81.07% # Type of FU issued
system.cpu.iq.FU_type_0::SimdReduceAdd              0      0.00%     81.07% # Type of FU issued
system.cpu.iq.FU_type_0::SimdReduceAlu              0      0.00%     81.07% # Type of FU issued
system.cpu.iq.FU_type_0::SimdReduceCmp              0      0.00%     81.07% # Type of FU issued
system.cpu.iq.FU_type_0::SimdFloatReduceAdd            0      0.00%     81.07% # Type of FU issued
system.cpu.iq.FU_type_0::SimdFloatReduceCmp            0      0.00%     81.07% # Type of FU issued
system.cpu.iq.FU_type_0::SimdAes                    0      0.00%     81.07% # Type of FU issued
system.cpu.iq.FU_type_0::SimdAesMix                 0      0.00%     81.07% # Type of FU issued
system.cpu.iq.FU_type_0::SimdSha1Hash               0      0.00%     81.07% # Type of FU issued
system.cpu.iq.FU_type_0::SimdSha1Hash2              0      0.00%     81.07% # Type of FU issued
system.cpu.iq.FU_type_0::SimdSha256Hash             0      0.00%     81.07% # Type of FU issued
system.cpu.iq.FU_type_0::SimdSha256Hash2            0      0.00%     81.07% # Type of FU issued
system.cpu.iq.FU_type_0::SimdShaSigma2              0      0.00%     81.07% # Type of FU issued
system.cpu.iq.FU_type_0::SimdShaSigma3              0      0.00%     81.07% # Type of FU issued
system.cpu.iq.FU_type_0::SimdPredAlu                0      0.00%     81.07% # Type of FU issued
system.cpu.iq.FU_type_0::MemRead               583859     13.54%     94.61% # Type of FU issued
system.cpu.iq.FU_type_0::MemWrite              191780      4.45%     99.05% # Type of FU issued
system.cpu.iq.FU_type_0::FloatMemRead           26635      0.62%     99.67% # Type of FU issued
system.cpu.iq.FU_type_0::FloatMemWrite          14240      0.33%    100.00% # Type of FU issued
system.cpu.iq.FU_type_0::IprAccess                  0      0.00%    100.00% # Type of FU issued
system.cpu.iq.FU_type_0::InstPrefetch               0      0.00%    100.00% # Type of FU issued
system.cpu.iq.FU_type_0::total                4312460                       # Type of FU issued
system.cpu.iq.fp_alu_accesses                   96174                       # Number of floating point alu accesses
system.cpu.iq.fp_inst_queue_reads              193851                       # Number of floating instruction queue reads
system.cpu.iq.fp_inst_queue_wakeup_accesses        92506                       # Number of floating instruction queue wakeup accesses
system.cpu.iq.fp_inst_queue_writes             137671                       # Number of floating instruction queue writes
system.cpu.iq.fu_busy_cnt                           0                       # FU busy when requested
system.cpu.iq.fu_busy_rate                          0                       # FU busy rate (busy events/executed inst)
system.cpu.iq.fu_full::No_OpClass                   0                       # attempts to use FU when none available
system.cpu.iq.fu_full::IntAlu                       0                       # attempts to use FU when none available
system.cpu.iq.fu_full::IntMult                      0                       # attempts to use FU when none available
system.cpu.iq.fu_full::IntDiv                       0                       # attempts to use FU when none available
system.cpu.iq.fu_full::FloatAdd                     0                       # attempts to use FU when none available
system.cpu.iq.fu_full::FloatCmp                     0                       # attempts to use FU when none available
system.cpu.iq.fu_full::FloatCvt                     0                       # attempts to use FU when none available
system.cpu.iq.fu_full::FloatMult                    0                       # attempts to use FU when none available
system.cpu.iq.fu_full::FloatMultAcc                 0                       # attempts to use FU when none available
system.cpu.iq.fu_full::FloatDiv                     0                       # attempts to use FU when none available
system.cpu.iq.fu_full::FloatMisc                    0                       # attempts to use FU when none available
system.cpu.iq.fu_full::FloatSqrt                    0                       # attempts to use FU when none available
system.cpu.iq.fu_full::SimdAdd                      0                       # attempts to use FU when none available
system.cpu.iq.fu_full::SimdAddAcc                   0                       # attempts to use FU when none available
system.cpu.iq.fu_full::SimdAlu                      0                       # attempts to use FU when none available
system.cpu.iq.fu_full::SimdCmp                      0                       # attempts to use FU when none available
system.cpu.iq.fu_full::SimdCvt                      0                       # attempts to use FU when none available
system.cpu.iq.fu_full::SimdMisc                     0                       # attempts to use FU when none available
system.cpu.iq.fu_full::SimdMult                     0                       # attempts to use FU when none available
system.cpu.iq.fu_full::SimdMultAcc                  0                       # attempts to use FU when none available
system.cpu.iq.fu_full::SimdShift                    0                       # attempts to use FU when none available
system.cpu.iq.fu_full::SimdShiftAcc                 0                       # attempts to use FU when none available
system.cpu.iq.fu_full::SimdDiv                      0                       # attempts to use FU when none available
system.cpu.iq.fu_full::SimdSqrt                     0                       # attempts to use FU when none available
system.cpu.iq.fu_full::SimdFloatAdd                 0                       # attempts to use FU when none available
system.cpu.iq.fu_full::SimdFloatAlu                 0                       # attempts to use FU when none available
system.cpu.iq.fu_full::SimdFloatCmp                 0                       # attempts to use FU when none available
system.cpu.iq.fu_full::SimdFloatCvt                 0                       # attempts to use FU when none available
system.cpu.iq.fu_full::SimdFloatDiv                 0                       # attempts to use FU when none available
system.cpu.iq.fu_full::SimdFloatMisc                0                       # attempts to use FU when none available
system.cpu.iq.fu_full::SimdFloatMult                0                       # attempts to use FU when none available
system.cpu.iq.fu_full::SimdFloatMultAcc             0                       # attempts to use FU when none available
system.cpu.iq.fu_full::SimdFloatSqrt                0                       # attempts to use FU when none available
system.cpu.iq.fu_full::SimdReduceAdd                0                       # attempts to use FU when none available
system.cpu.iq.fu_full::SimdReduceAlu                0                       # attempts to use FU when none available
system.cpu.iq.fu_full::SimdReduceCmp                0                       # attempts to use FU when none available
system.cpu.iq.fu_full::SimdFloatReduceAdd            0                       # attempts to use FU when none available
system.cpu.iq.fu_full::SimdFloatReduceCmp            0                       # attempts to use FU when none available
system.cpu.iq.fu_full::SimdAes                      0                       # attempts to use FU when none available
system.cpu.iq.fu_full::SimdAesMix                   0                       # attempts to use FU when none available
system.cpu.iq.fu_full::SimdSha1Hash                 0                       # attempts to use FU when none available
system.cpu.iq.fu_full::SimdSha1Hash2                0                       # attempts to use FU when none available
system.cpu.iq.fu_full::SimdSha256Hash               0                       # attempts to use FU when none available
system.cpu.iq.fu_full::SimdSha256Hash2              0                       # attempts to use FU when none available
system.cpu.iq.fu_full::SimdShaSigma2                0                       # attempts to use FU when none available
system.cpu.iq.fu_full::SimdShaSigma3                0                       # attempts to use FU when none available
system.cpu.iq.fu_full::SimdPredAlu                  0                       # attempts to use FU when none available
system.cpu.iq.fu_full::MemRead                      0                       # attempts to use FU when none available
system.cpu.iq.fu_full::MemWrite                     0                       # attempts to use FU when none available
system.cpu.iq.fu_full::FloatMemRead                 0                       # attempts to use FU when none available
system.cpu.iq.fu_full::FloatMemWrite                0                       # attempts to use FU when none available
system.cpu.iq.fu_full::IprAccess                    0                       # attempts to use FU when none available
system.cpu.iq.fu_full::InstPrefetch                 0                       # attempts to use FU when none available
system.cpu.iq.int_alu_accesses                4188601                       # Number of integer alu accesses
system.cpu.iq.int_inst_queue_reads           11123749                       # Number of integer instruction queue reads
system.cpu.iq.int_inst_queue_wakeup_accesses      4160191                       # Number of integer instruction queue wakeup accesses
system.cpu.iq.int_inst_queue_writes           5416483                       # Number of integer instruction queue writes
system.cpu.iq.iqInstsAdded                    4637949                       # Number of instructions added to the IQ (excludes non-spec)
system.cpu.iq.iqInstsIssued                   4312460                       # Number of instructions issued
system.cpu.iq.iqNonSpecInstsAdded                1590                       # Number of non-speculative instructions added to the IQ
system.cpu.iq.iqSquashedInstsExamined          914538                       # Number of squashed instructions iterated over during squash; mainly for profiling
system.cpu.iq.iqSquashedInstsIssued             19080                       # Number of squashed instructions issued
system.cpu.iq.iqSquashedNonSpecRemoved            664                       # Number of squashed non-spec instructions that were removed
system.cpu.iq.iqSquashedOperandsExamined      1353542                       # Number of squashed operands that are examined and possibly removed from graph
system.cpu.iq.issued_per_cycle::samples       2673603                       # Number of insts issued each cycle
system.cpu.iq.issued_per_cycle::mean         1.612977                       # Number of insts issued each cycle
system.cpu.iq.issued_per_cycle::stdev        1.668111                       # Number of insts issued each cycle
system.cpu.iq.issued_per_cycle::underflows            0      0.00%      0.00% # Number of insts issued each cycle
system.cpu.iq.issued_per_cycle::0             1214104     45.41%     45.41% # Number of insts issued each cycle
system.cpu.iq.issued_per_cycle::1              182772      6.84%     52.25% # Number of insts issued each cycle
system.cpu.iq.issued_per_cycle::2              312791     11.70%     63.95% # Number of insts issued each cycle
system.cpu.iq.issued_per_cycle::3              351638     13.15%     77.10% # Number of insts issued each cycle
system.cpu.iq.issued_per_cycle::4              612298     22.90%    100.00% # Number of insts issued each cycle
system.cpu.iq.issued_per_cycle::overflows            0      0.00%    100.00% # Number of insts issued each cycle
system.cpu.iq.issued_per_cycle::min_value            0                       # Number of insts issued each cycle
system.cpu.iq.issued_per_cycle::max_value            4                       # Number of insts issued each cycle
system.cpu.iq.issued_per_cycle::total         2673603                       # Number of insts issued each cycle
system.cpu.iq.rate                           1.514452                       # Inst issue rate
system.cpu.iq.vec_alu_accesses                      0                       # Number of vector alu accesses
system.cpu.iq.vec_inst_queue_reads                  0                       # Number of vector instruction queue reads
system.cpu.iq.vec_inst_queue_wakeup_accesses            0                       # Number of vector instruction queue wakeup accesses
system.cpu.iq.vec_inst_queue_writes                 0                       # Number of vector instruction queue writes
system.cpu.itb.rdAccesses                           0                       # TLB accesses on read requests
system.cpu.itb.rdMisses                             0                       # TLB misses on read requests
system.cpu.itb.wrAccesses                      254614                       # TLB accesses on write requests
system.cpu.itb.wrMisses                           399                       # TLB misses on write requests
system.cpu.memDep0.conflictingLoads             13790                       # Number of conflicting loads.
system.cpu.memDep0.conflictingStores             4635                       # Number of conflicting stores.
system.cpu.memDep0.insertedLoads               631822                       # Number of loads inserted to the mem dependence unit.
system.cpu.memDep0.insertedStores              214223                       # Number of stores inserted to the mem dependence unit.
system.cpu.misc_regfile_reads                 1618722                       # number of misc regfile reads
system.cpu.misc_regfile_writes                    855                       # number of misc regfile writes
system.cpu.numCycles                          2847539                       # number of cpu cycles simulated
system.cpu.numWorkItemsCompleted                    0                       # number of work items this cpu completed
system.cpu.numWorkItemsStarted                      0                       # number of work items this cpu started
system.cpu.process.numSyscalls                     70                       # Number of system calls
system.cpu.rename.BlockCycles                  854308                       # Number of cycles rename is blocking
system.cpu.rename.CommittedMaps               5068518                       # Number of HB maps that are committed
system.cpu.rename.FullRegisterEvents               37                       # Number of times there has been no free registers
system.cpu.rename.IQFullEvents                  47258                       # Number of times rename has blocked due to IQ full
system.cpu.rename.IdleCycles                   371501                       # Number of cycles rename is idle
system.cpu.rename.LQFullEvents                  16177                       # Number of times rename has blocked due to LQ full
system.cpu.rename.ROBFullEvents                  5166                       # Number of times rename has blocked due to ROB full
system.cpu.rename.RenameLookups              12495287                       # Number of register rename lookups that rename has made
system.cpu.rename.RenamedInsts                4788688                       # Number of instructions processed by rename
system.cpu.rename.RenamedOperands             6504374                       # Number of destination operands rename has renamed
system.cpu.rename.RunCycles                   1215746                       # Number of cycles rename is running
system.cpu.rename.SQFullEvents                  81505                       # Number of times rename has blocked due to SQ full
system.cpu.rename.SquashCycles                  25911                       # Number of cycles rename is squashing
system.cpu.rename.UnblockCycles                182254                       # Number of cycles rename is unblocking
system.cpu.rename.UndoneMaps                  1435833                       # Number of HB maps that are undone due to squashing
system.cpu.rename.fp_rename_lookups            162847                       # Number of floating rename lookups
system.cpu.rename.int_rename_lookups          7603044                       # Number of integer rename lookups
system.cpu.rename.serializeStallCycles          23883                       # count of cycles rename stalled for serializing inst
system.cpu.rename.serializingInsts               1081                       # count of serializing insts renamed
system.cpu.rename.skidInsts                    209713                       # count of insts added to the skid buffer
system.cpu.rename.tempSerializingInsts           1145                       # count of temporary serializing insts renamed
system.cpu.rob.rob_reads                      6444120                       # The number of ROB reads
system.cpu.rob.rob_writes                     9530478                       # The number of ROB writes
system.cpu.timesIdled                            2030                       # Number of times that the entire CPU went into an idle state and unscheduled itself
system.l2bus.snoop_filter.hit_multi_requests           12                       # Number of requests hitting in the snoop filter with multiple (>1) holders of the requested data.
system.l2bus.snoop_filter.hit_multi_snoops            1                       # Number of snoops hitting in the snoop filter with multiple (>1) holders of the requested data.
system.l2bus.snoop_filter.hit_single_requests        19326                       # Number of requests hitting in the snoop filter with a single holder of the requested data.
system.l2bus.snoop_filter.hit_single_snoops          448                       # Number of snoops hitting in the snoop filter with a single holder of the requested data.
system.l2bus.snoop_filter.tot_requests          39932                       # Total number of requests made to the snoop filter.
system.l2bus.snoop_filter.tot_snoops              449                       # Total number of snoops made to the snoop filter.
system.l2cache.prefetcher.num_hwpf_issued          611                       # number of hwpf issued
system.l2cache.prefetcher.pfBufferHit               0                       # number of redundant prefetches already in prefetch queue
system.l2cache.prefetcher.pfIdentified            611                       # number of prefetch candidates identified
system.l2cache.prefetcher.pfInCache                 0                       # number of redundant prefetches already in cache/mshr dropped
system.l2cache.prefetcher.pfRemovedFull             0                       # number of prefetches dropped due to prefetch queue size
system.l2cache.prefetcher.pfSpanPage               85                       # number of prefetches that crossed the page
system.membus.snoop_filter.hit_multi_requests            0                       # Number of requests hitting in the snoop filter with multiple (>1) holders of the requested data.
system.membus.snoop_filter.hit_multi_snoops            0                       # Number of snoops hitting in the snoop filter with multiple (>1) holders of the requested data.
system.membus.snoop_filter.hit_single_requests         9640                       # Number of requests hitting in the snoop filter with a single holder of the requested data.
system.membus.snoop_filter.hit_single_snoops            0                       # Number of snoops hitting in the snoop filter with a single holder of the requested data.
system.membus.snoop_filter.tot_requests         23409                       # Total number of requests made to the snoop filter.
system.membus.snoop_filter.tot_snoops               0                       # Total number of snoops made to the snoop filter.
system.membus.pwrStateResidencyTicks::UNDEFINED   1139015200                       # Cumulative time (in ticks) in various power states
system.membus.trans_dist::ReadResp              12423                       # Transaction distribution
system.membus.trans_dist::WritebackDirty         1359                       # Transaction distribution
system.membus.trans_dist::CleanEvict             8281                       # Transaction distribution
system.membus.trans_dist::ReadExReq              1346                       # Transaction distribution
system.membus.trans_dist::ReadExResp             1346                       # Transaction distribution
system.membus.trans_dist::ReadSharedReq         12423                       # Transaction distribution
system.membus.pkt_count_system.l2cache.mem_side::system.mem_ctrl.port        37178                       # Packet count per connected master and slave (bytes)
system.membus.pkt_count_system.l2cache.mem_side::total        37178                       # Packet count per connected master and slave (bytes)
system.membus.pkt_count::total                  37178                       # Packet count per connected master and slave (bytes)
system.membus.pkt_size_system.l2cache.mem_side::system.mem_ctrl.port       968192                       # Cumulative packet size per connected master and slave (bytes)
system.membus.pkt_size_system.l2cache.mem_side::total       968192                       # Cumulative packet size per connected master and slave (bytes)
system.membus.pkt_size::total                  968192                       # Cumulative packet size per connected master and slave (bytes)
system.membus.snoops                                0                       # Total snoops (count)
system.membus.snoopTraffic                          0                       # Total snoop traffic (bytes)
system.membus.snoop_fanout::samples             13769                       # Request fanout histogram
system.membus.snoop_fanout::mean                    0                       # Request fanout histogram
system.membus.snoop_fanout::stdev                   0                       # Request fanout histogram
system.membus.snoop_fanout::underflows              0      0.00%      0.00% # Request fanout histogram
system.membus.snoop_fanout::0                   13769    100.00%    100.00% # Request fanout histogram
system.membus.snoop_fanout::1                       0      0.00%    100.00% # Request fanout histogram
system.membus.snoop_fanout::overflows               0      0.00%    100.00% # Request fanout histogram
system.membus.snoop_fanout::min_value               0                       # Request fanout histogram
system.membus.snoop_fanout::max_value               0                       # Request fanout histogram
system.membus.snoop_fanout::total               13769                       # Request fanout histogram
system.membus.reqLayer2.occupancy            11562258                       # Layer occupancy (ticks)
system.membus.reqLayer2.utilization               1.0                       # Layer utilization (%)
system.membus.respLayer0.occupancy           29882442                       # Layer occupancy (ticks)
system.membus.respLayer0.utilization              2.6                       # Layer utilization (%)
system.l2bus.pwrStateResidencyTicks::UNDEFINED   1139015200                       # Cumulative time (in ticks) in various power states
system.l2bus.trans_dist::ReadResp               18542                       # Transaction distribution
system.l2bus.trans_dist::WritebackDirty          4192                       # Transaction distribution
system.l2bus.trans_dist::CleanEvict             24876                       # Transaction distribution
system.l2bus.trans_dist::HardPFReq                877                       # Transaction distribution
system.l2bus.trans_dist::UpgradeReq                 1                       # Transaction distribution
system.l2bus.trans_dist::UpgradeResp                1                       # Transaction distribution
system.l2bus.trans_dist::ReadExReq               2064                       # Transaction distribution
system.l2bus.trans_dist::ReadExResp              2064                       # Transaction distribution
system.l2bus.trans_dist::ReadSharedReq          18542                       # Transaction distribution
system.l2bus.pkt_count_system.cpu.icache.mem_side::system.l2cache.cpu_side        10362                       # Packet count per connected master and slave (bytes)
system.l2bus.pkt_count_system.cpu.dcache.mem_side::system.l2cache.cpu_side        50173                       # Packet count per connected master and slave (bytes)
system.l2bus.pkt_count::total                   60535                       # Packet count per connected master and slave (bytes)
system.l2bus.pkt_size_system.cpu.icache.mem_side::system.l2cache.cpu_side       226368                       # Cumulative packet size per connected master and slave (bytes)
system.l2bus.pkt_size_system.cpu.dcache.mem_side::system.l2cache.cpu_side      1273472                       # Cumulative packet size per connected master and slave (bytes)
system.l2bus.pkt_size::total                  1499840                       # Cumulative packet size per connected master and slave (bytes)
system.l2bus.snoops                             10624                       # Total snoops (count)
system.l2bus.snoopTraffic                       87232                       # Total snoop traffic (bytes)
system.l2bus.snoop_fanout::samples              31227                       # Request fanout histogram
system.l2bus.snoop_fanout::mean              0.014827                       # Request fanout histogram
system.l2bus.snoop_fanout::stdev             0.121126                       # Request fanout histogram
system.l2bus.snoop_fanout::underflows               0      0.00%      0.00% # Request fanout histogram
system.l2bus.snoop_fanout::0                    30765     98.52%     98.52% # Request fanout histogram
system.l2bus.snoop_fanout::1                      461      1.48%    100.00% # Request fanout histogram
system.l2bus.snoop_fanout::2                        1      0.00%    100.00% # Request fanout histogram
system.l2bus.snoop_fanout::overflows                0      0.00%    100.00% # Request fanout histogram
system.l2bus.snoop_fanout::min_value                0                       # Request fanout histogram
system.l2bus.snoop_fanout::max_value                2                       # Request fanout histogram
system.l2bus.snoop_fanout::total                31227                       # Request fanout histogram
system.l2bus.respLayer1.occupancy            20478799                       # Layer occupancy (ticks)
system.l2bus.respLayer1.utilization               1.8                       # Layer utilization (%)
system.l2bus.reqLayer0.occupancy             19687860                       # Layer occupancy (ticks)
system.l2bus.reqLayer0.utilization                1.7                       # Layer utilization (%)
system.l2bus.respLayer0.occupancy             4249998                       # Layer occupancy (ticks)
system.l2bus.respLayer0.utilization               0.4                       # Layer utilization (%)
system.clk_domain.clock                           400                       # Clock period in ticks
system.clk_domain.voltage_domain.voltage            1                       # Voltage in Volts
system.cpu.pwrStateResidencyTicks::ON      1139015200                       # Cumulative time (in ticks) in various power states
system.cpu.icache.pwrStateResidencyTicks::UNDEFINED   1139015200                       # Cumulative time (in ticks) in various power states
system.cpu.icache.demand_hits::.cpu.inst       250164                       # number of demand (read+write) hits
system.cpu.icache.demand_hits::total           250164                       # number of demand (read+write) hits
system.cpu.icache.overall_hits::.cpu.inst       250164                       # number of overall hits
system.cpu.icache.overall_hits::total          250164                       # number of overall hits
system.cpu.icache.demand_misses::.cpu.inst         4305                       # number of demand (read+write) misses
system.cpu.icache.demand_misses::total           4305                       # number of demand (read+write) misses
system.cpu.icache.overall_misses::.cpu.inst         4305                       # number of overall misses
system.cpu.icache.overall_misses::total          4305                       # number of overall misses
system.cpu.icache.demand_miss_latency::.cpu.inst    192728400                       # number of demand (read+write) miss cycles
system.cpu.icache.demand_miss_latency::total    192728400                       # number of demand (read+write) miss cycles
system.cpu.icache.overall_miss_latency::.cpu.inst    192728400                       # number of overall miss cycles
system.cpu.icache.overall_miss_latency::total    192728400                       # number of overall miss cycles
system.cpu.icache.demand_accesses::.cpu.inst       254469                       # number of demand (read+write) accesses
system.cpu.icache.demand_accesses::total       254469                       # number of demand (read+write) accesses
system.cpu.icache.overall_accesses::.cpu.inst       254469                       # number of overall (read+write) accesses
system.cpu.icache.overall_accesses::total       254469                       # number of overall (read+write) accesses
system.cpu.icache.demand_miss_rate::.cpu.inst     0.016918                       # miss rate for demand accesses
system.cpu.icache.demand_miss_rate::total     0.016918                       # miss rate for demand accesses
system.cpu.icache.overall_miss_rate::.cpu.inst     0.016918                       # miss rate for overall accesses
system.cpu.icache.overall_miss_rate::total     0.016918                       # miss rate for overall accesses
system.cpu.icache.demand_avg_miss_latency::.cpu.inst 44768.501742                       # average overall miss latency
system.cpu.icache.demand_avg_miss_latency::total 44768.501742                       # average overall miss latency
system.cpu.icache.overall_avg_miss_latency::.cpu.inst 44768.501742                       # average overall miss latency
system.cpu.icache.overall_avg_miss_latency::total 44768.501742                       # average overall miss latency
system.cpu.icache.blocked_cycles::no_mshrs          106                       # number of cycles access was blocked
system.cpu.icache.blocked_cycles::no_targets            0                       # number of cycles access was blocked
system.cpu.icache.blocked::no_mshrs                 6                       # number of cycles access was blocked
system.cpu.icache.blocked::no_targets               0                       # number of cycles access was blocked
system.cpu.icache.avg_blocked_cycles::no_mshrs    17.666667                       # average number of cycles each access was blocked
system.cpu.icache.avg_blocked_cycles::no_targets          nan                       # average number of cycles each access was blocked
system.cpu.icache.demand_mshr_hits::.cpu.inst          764                       # number of demand (read+write) MSHR hits
system.cpu.icache.demand_mshr_hits::total          764                       # number of demand (read+write) MSHR hits
system.cpu.icache.overall_mshr_hits::.cpu.inst          764                       # number of overall MSHR hits
system.cpu.icache.overall_mshr_hits::total          764                       # number of overall MSHR hits
system.cpu.icache.demand_mshr_misses::.cpu.inst         3541                       # number of demand (read+write) MSHR misses
system.cpu.icache.demand_mshr_misses::total         3541                       # number of demand (read+write) MSHR misses
system.cpu.icache.overall_mshr_misses::.cpu.inst         3541                       # number of overall MSHR misses
system.cpu.icache.overall_mshr_misses::total         3541                       # number of overall MSHR misses
system.cpu.icache.demand_mshr_miss_latency::.cpu.inst    154630000                       # number of demand (read+write) MSHR miss cycles
system.cpu.icache.demand_mshr_miss_latency::total    154630000                       # number of demand (read+write) MSHR miss cycles
system.cpu.icache.overall_mshr_miss_latency::.cpu.inst    154630000                       # number of overall MSHR miss cycles
system.cpu.icache.overall_mshr_miss_latency::total    154630000                       # number of overall MSHR miss cycles
system.cpu.icache.demand_mshr_miss_rate::.cpu.inst     0.013915                       # mshr miss rate for demand accesses
system.cpu.icache.demand_mshr_miss_rate::total     0.013915                       # mshr miss rate for demand accesses
system.cpu.icache.overall_mshr_miss_rate::.cpu.inst     0.013915                       # mshr miss rate for overall accesses
system.cpu.icache.overall_mshr_miss_rate::total     0.013915                       # mshr miss rate for overall accesses
system.cpu.icache.demand_avg_mshr_miss_latency::.cpu.inst 43668.455239                       # average overall mshr miss latency
system.cpu.icache.demand_avg_mshr_miss_latency::total 43668.455239                       # average overall mshr miss latency
system.cpu.icache.overall_avg_mshr_miss_latency::.cpu.inst 43668.455239                       # average overall mshr miss latency
system.cpu.icache.overall_avg_mshr_miss_latency::total 43668.455239                       # average overall mshr miss latency
system.cpu.icache.replacements                   3284                       # number of replacements
system.cpu.icache.ReadReq_hits::.cpu.inst       250164                       # number of ReadReq hits
system.cpu.icache.ReadReq_hits::total          250164                       # number of ReadReq hits
system.cpu.icache.ReadReq_misses::.cpu.inst         4305                       # number of ReadReq misses
system.cpu.icache.ReadReq_misses::total          4305                       # number of ReadReq misses
system.cpu.icache.ReadReq_miss_latency::.cpu.inst    192728400                       # number of ReadReq miss cycles
system.cpu.icache.ReadReq_miss_latency::total    192728400                       # number of ReadReq miss cycles
system.cpu.icache.ReadReq_accesses::.cpu.inst       254469                       # number of ReadReq accesses(hits+misses)
system.cpu.icache.ReadReq_accesses::total       254469                       # number of ReadReq accesses(hits+misses)
system.cpu.icache.ReadReq_miss_rate::.cpu.inst     0.016918                       # miss rate for ReadReq accesses
system.cpu.icache.ReadReq_miss_rate::total     0.016918                       # miss rate for ReadReq accesses
system.cpu.icache.ReadReq_avg_miss_latency::.cpu.inst 44768.501742                       # average ReadReq miss latency
system.cpu.icache.ReadReq_avg_miss_latency::total 44768.501742                       # average ReadReq miss latency
system.cpu.icache.ReadReq_mshr_hits::.cpu.inst          764                       # number of ReadReq MSHR hits
system.cpu.icache.ReadReq_mshr_hits::total          764                       # number of ReadReq MSHR hits
system.cpu.icache.ReadReq_mshr_misses::.cpu.inst         3541                       # number of ReadReq MSHR misses
system.cpu.icache.ReadReq_mshr_misses::total         3541                       # number of ReadReq MSHR misses
system.cpu.icache.ReadReq_mshr_miss_latency::.cpu.inst    154630000                       # number of ReadReq MSHR miss cycles
system.cpu.icache.ReadReq_mshr_miss_latency::total    154630000                       # number of ReadReq MSHR miss cycles
system.cpu.icache.ReadReq_mshr_miss_rate::.cpu.inst     0.013915                       # mshr miss rate for ReadReq accesses
system.cpu.icache.ReadReq_mshr_miss_rate::total     0.013915                       # mshr miss rate for ReadReq accesses
system.cpu.icache.ReadReq_avg_mshr_miss_latency::.cpu.inst 43668.455239                       # average ReadReq mshr miss latency
system.cpu.icache.ReadReq_avg_mshr_miss_latency::total 43668.455239                       # average ReadReq mshr miss latency
system.cpu.icache.prefetcher.pwrStateResidencyTicks::UNDEFINED   1139015200                       # Cumulative time (in ticks) in various power states
system.cpu.icache.tags.pwrStateResidencyTicks::UNDEFINED   1139015200                       # Cumulative time (in ticks) in various power states
system.cpu.icache.tags.tagsinuse           253.563194                       # Cycle average of tags in use
system.cpu.icache.tags.total_refs              230422                       # Total number of references to valid blocks.
system.cpu.icache.tags.sampled_refs              3285                       # Sample count of references to valid blocks.
system.cpu.icache.tags.avg_refs             70.143683                       # Average number of references to valid blocks.
system.cpu.icache.tags.warmup_cycle             66400                       # Cycle when the warmup percentage was hit.
system.cpu.icache.tags.occ_blocks::.cpu.inst   253.563194                       # Average occupied blocks per requestor
system.cpu.icache.tags.occ_percent::.cpu.inst     0.990481                       # Average percentage of cache occupancy
system.cpu.icache.tags.occ_percent::total     0.990481                       # Average percentage of cache occupancy
system.cpu.icache.tags.occ_task_id_blocks::1024          256                       # Occupied blocks per task id
system.cpu.icache.tags.age_task_id_blocks_1024::0           93                       # Occupied blocks per task id
system.cpu.icache.tags.age_task_id_blocks_1024::1          141                       # Occupied blocks per task id
system.cpu.icache.tags.age_task_id_blocks_1024::2           17                       # Occupied blocks per task id
system.cpu.icache.tags.age_task_id_blocks_1024::3            5                       # Occupied blocks per task id
system.cpu.icache.tags.occ_task_id_percent::1024            1                       # Percentage of cache occupancy per task id
system.cpu.icache.tags.tag_accesses            512479                       # Number of tag accesses
system.cpu.icache.tags.data_accesses           512479                       # Number of data accesses
system.cpu.dtb.walker.pwrStateResidencyTicks::UNDEFINED   1139015200                       # Cumulative time (in ticks) in various power states
system.cpu.interrupts.clk_domain.clock           6400                       # Clock period in ticks
system.cpu.itb.walker.pwrStateResidencyTicks::UNDEFINED   1139015200                       # Cumulative time (in ticks) in various power states
system.cpu.dcache.pwrStateResidencyTicks::UNDEFINED   1139015200                       # Cumulative time (in ticks) in various power states
system.cpu.dcache.demand_hits::.cpu.data       702982                       # number of demand (read+write) hits
system.cpu.dcache.demand_hits::total           702982                       # number of demand (read+write) hits
system.cpu.dcache.overall_hits::.cpu.data       702982                       # number of overall hits
system.cpu.dcache.overall_hits::total          702982                       # number of overall hits
system.cpu.dcache.demand_misses::.cpu.data        35013                       # number of demand (read+write) misses
system.cpu.dcache.demand_misses::total          35013                       # number of demand (read+write) misses
system.cpu.dcache.overall_misses::.cpu.data        35013                       # number of overall misses
system.cpu.dcache.overall_misses::total         35013                       # number of overall misses
system.cpu.dcache.demand_miss_latency::.cpu.data   1699169600                       # number of demand (read+write) miss cycles
system.cpu.dcache.demand_miss_latency::total   1699169600                       # number of demand (read+write) miss cycles
system.cpu.dcache.overall_miss_latency::.cpu.data   1699169600                       # number of overall miss cycles
system.cpu.dcache.overall_miss_latency::total   1699169600                       # number of overall miss cycles
system.cpu.dcache.demand_accesses::.cpu.data       737995                       # number of demand (read+write) accesses
system.cpu.dcache.demand_accesses::total       737995                       # number of demand (read+write) accesses
system.cpu.dcache.overall_accesses::.cpu.data       737995                       # number of overall (read+write) accesses
system.cpu.dcache.overall_accesses::total       737995                       # number of overall (read+write) accesses
system.cpu.dcache.demand_miss_rate::.cpu.data     0.047443                       # miss rate for demand accesses
system.cpu.dcache.demand_miss_rate::total     0.047443                       # miss rate for demand accesses
system.cpu.dcache.overall_miss_rate::.cpu.data     0.047443                       # miss rate for overall accesses
system.cpu.dcache.overall_miss_rate::total     0.047443                       # miss rate for overall accesses
system.cpu.dcache.demand_avg_miss_latency::.cpu.data 48529.677548                       # average overall miss latency
system.cpu.dcache.demand_avg_miss_latency::total 48529.677548                       # average overall miss latency
system.cpu.dcache.overall_avg_miss_latency::.cpu.data 48529.677548                       # average overall miss latency
system.cpu.dcache.overall_avg_miss_latency::total 48529.677548                       # average overall miss latency
system.cpu.dcache.blocked_cycles::no_mshrs        29402                       # number of cycles access was blocked
system.cpu.dcache.blocked_cycles::no_targets          138                       # number of cycles access was blocked
system.cpu.dcache.blocked::no_mshrs               721                       # number of cycles access was blocked
system.cpu.dcache.blocked::no_targets               1                       # number of cycles access was blocked
system.cpu.dcache.avg_blocked_cycles::no_mshrs    40.779473                       # average number of cycles each access was blocked
system.cpu.dcache.avg_blocked_cycles::no_targets          138                       # average number of cycles each access was blocked
system.cpu.dcache.unused_prefetches              1844                       # number of HardPF blocks evicted w/o reference
system.cpu.dcache.writebacks::.writebacks         2833                       # number of writebacks
system.cpu.dcache.writebacks::total              2833                       # number of writebacks
system.cpu.dcache.demand_mshr_hits::.cpu.data        22367                       # number of demand (read+write) MSHR hits
system.cpu.dcache.demand_mshr_hits::total        22367                       # number of demand (read+write) MSHR hits
system.cpu.dcache.overall_mshr_hits::.cpu.data        22367                       # number of overall MSHR hits
system.cpu.dcache.overall_mshr_hits::total        22367                       # number of overall MSHR hits
system.cpu.dcache.demand_mshr_misses::.cpu.data        12646                       # number of demand (read+write) MSHR misses
system.cpu.dcache.demand_mshr_misses::total        12646                       # number of demand (read+write) MSHR misses
system.cpu.dcache.overall_mshr_misses::.cpu.data        12646                       # number of overall MSHR misses
system.cpu.dcache.overall_mshr_misses::.cpu.dcache.prefetcher         4420                       # number of overall MSHR misses
system.cpu.dcache.overall_mshr_misses::total        17066                       # number of overall MSHR misses
system.cpu.dcache.demand_mshr_miss_latency::.cpu.data    582968400                       # number of demand (read+write) MSHR miss cycles
system.cpu.dcache.demand_mshr_miss_latency::total    582968400                       # number of demand (read+write) MSHR miss cycles
system.cpu.dcache.overall_mshr_miss_latency::.cpu.data    582968400                       # number of overall MSHR miss cycles
system.cpu.dcache.overall_mshr_miss_latency::.cpu.dcache.prefetcher    253508140                       # number of overall MSHR miss cycles
system.cpu.dcache.overall_mshr_miss_latency::total    836476540                       # number of overall MSHR miss cycles
system.cpu.dcache.demand_mshr_miss_rate::.cpu.data     0.017136                       # mshr miss rate for demand accesses
system.cpu.dcache.demand_mshr_miss_rate::total     0.017136                       # mshr miss rate for demand accesses
system.cpu.dcache.overall_mshr_miss_rate::.cpu.data     0.017136                       # mshr miss rate for overall accesses
system.cpu.dcache.overall_mshr_miss_rate::.cpu.dcache.prefetcher          inf                       # mshr miss rate for overall accesses
system.cpu.dcache.overall_mshr_miss_rate::total     0.023125                       # mshr miss rate for overall accesses
system.cpu.dcache.demand_avg_mshr_miss_latency::.cpu.data 46099.035268                       # average overall mshr miss latency
system.cpu.dcache.demand_avg_mshr_miss_latency::total 46099.035268                       # average overall mshr miss latency
system.cpu.dcache.overall_avg_mshr_miss_latency::.cpu.data 46099.035268                       # average overall mshr miss latency
system.cpu.dcache.overall_avg_mshr_miss_latency::.cpu.dcache.prefetcher 57354.782805                       # average overall mshr miss latency
system.cpu.dcache.overall_avg_mshr_miss_latency::total 49014.211883                       # average overall mshr miss latency
system.cpu.dcache.replacements                  16041                       # number of replacements
system.cpu.dcache.ReadReq_hits::.cpu.data       522415                       # number of ReadReq hits
system.cpu.dcache.ReadReq_hits::total          522415                       # number of ReadReq hits
system.cpu.dcache.ReadReq_misses::.cpu.data        32911                       # number of ReadReq misses
system.cpu.dcache.ReadReq_misses::total         32911                       # number of ReadReq misses
system.cpu.dcache.ReadReq_miss_latency::.cpu.data   1593602800                       # number of ReadReq miss cycles
system.cpu.dcache.ReadReq_miss_latency::total   1593602800                       # number of ReadReq miss cycles
system.cpu.dcache.ReadReq_accesses::.cpu.data       555326                       # number of ReadReq accesses(hits+misses)
system.cpu.dcache.ReadReq_accesses::total       555326                       # number of ReadReq accesses(hits+misses)
system.cpu.dcache.ReadReq_miss_rate::.cpu.data     0.059264                       # miss rate for ReadReq accesses
system.cpu.dcache.ReadReq_miss_rate::total     0.059264                       # miss rate for ReadReq accesses
system.cpu.dcache.ReadReq_avg_miss_latency::.cpu.data 48421.585488                       # average ReadReq miss latency
system.cpu.dcache.ReadReq_avg_miss_latency::total 48421.585488                       # average ReadReq miss latency
system.cpu.dcache.ReadReq_mshr_hits::.cpu.data        22329                       # number of ReadReq MSHR hits
system.cpu.dcache.ReadReq_mshr_hits::total        22329                       # number of ReadReq MSHR hits
system.cpu.dcache.ReadReq_mshr_misses::.cpu.data        10582                       # number of ReadReq MSHR misses
system.cpu.dcache.ReadReq_mshr_misses::total        10582                       # number of ReadReq MSHR misses
system.cpu.dcache.ReadReq_mshr_miss_latency::.cpu.data    481027600                       # number of ReadReq MSHR miss cycles
system.cpu.dcache.ReadReq_mshr_miss_latency::total    481027600                       # number of ReadReq MSHR miss cycles
system.cpu.dcache.ReadReq_mshr_miss_rate::.cpu.data     0.019055                       # mshr miss rate for ReadReq accesses
system.cpu.dcache.ReadReq_mshr_miss_rate::total     0.019055                       # mshr miss rate for ReadReq accesses
system.cpu.dcache.ReadReq_avg_mshr_miss_latency::.cpu.data 45457.153657                       # average ReadReq mshr miss latency
system.cpu.dcache.ReadReq_avg_mshr_miss_latency::total 45457.153657                       # average ReadReq mshr miss latency
system.cpu.dcache.WriteReq_hits::.cpu.data       180567                       # number of WriteReq hits
system.cpu.dcache.WriteReq_hits::total         180567                       # number of WriteReq hits
system.cpu.dcache.WriteReq_misses::.cpu.data         2102                       # number of WriteReq misses
system.cpu.dcache.WriteReq_misses::total         2102                       # number of WriteReq misses
system.cpu.dcache.WriteReq_miss_latency::.cpu.data    105566800                       # number of WriteReq miss cycles
system.cpu.dcache.WriteReq_miss_latency::total    105566800                       # number of WriteReq miss cycles
system.cpu.dcache.WriteReq_accesses::.cpu.data       182669                       # number of WriteReq accesses(hits+misses)
system.cpu.dcache.WriteReq_accesses::total       182669                       # number of WriteReq accesses(hits+misses)
system.cpu.dcache.WriteReq_miss_rate::.cpu.data     0.011507                       # miss rate for WriteReq accesses
system.cpu.dcache.WriteReq_miss_rate::total     0.011507                       # miss rate for WriteReq accesses
system.cpu.dcache.WriteReq_avg_miss_latency::.cpu.data 50222.074215                       # average WriteReq miss latency
system.cpu.dcache.WriteReq_avg_miss_latency::total 50222.074215                       # average WriteReq miss latency
system.cpu.dcache.WriteReq_mshr_hits::.cpu.data           38                       # number of WriteReq MSHR hits
system.cpu.dcache.WriteReq_mshr_hits::total           38                       # number of WriteReq MSHR hits
[...]
system.l2cache.demand_mshr_misses::.cpu.data           96                       # number of demand (read+write) MSHR misses
system.l2cache.demand_mshr_misses::.cpu.dcache.prefetcher           25                       # number of demand (read+write) MSHR misses
system.l2cache.demand_mshr_misses::total          385                       # number of demand (read+write) MSHR misses
system.l2cache.overall_mshr_misses::.cpu.inst          264                       # number of overall MSHR misses
system.l2cache.overall_mshr_misses::.cpu.data           96                       # number of overall MSHR misses
system.l2cache.overall_mshr_misses::.cpu.dcache.prefetcher           25                       # number of overall MSHR misses
system.l2cache.overall_mshr_misses::total          385                       # number of overall MSHR misses
system.l2cache.demand_mshr_miss_latency::.cpu.inst     15740800                       # number of demand (read+write) MSHR miss cycles
system.l2cache.demand_mshr_miss_latency::.cpu.data      5762400                       # number of demand (read+write) MSHR miss cycles
system.l2cache.demand_mshr_miss_latency::.cpu.dcache.prefetcher      1464377                       # number of demand (read+write) MSHR miss cycles
system.l2cache.demand_mshr_miss_latency::total     22967577                       # number of demand (read+write) MSHR miss cycles
system.l2cache.overall_mshr_miss_latency::.cpu.inst     15740800                       # number of overall MSHR miss cycles
system.l2cache.overall_mshr_miss_latency::.cpu.data      5762400                       # number of overall MSHR miss cycles
system.l2cache.overall_mshr_miss_latency::.cpu.dcache.prefetcher      1464377                       # number of overall MSHR miss cycles
system.l2cache.overall_mshr_miss_latency::total     22967577                       # number of overall MSHR miss cycles
system.l2cache.demand_mshr_miss_rate::.cpu.inst     0.571429                       # mshr miss rate for demand accesses
system.l2cache.demand_mshr_miss_rate::.cpu.data     0.578313                       # mshr miss rate for demand accesses
system.l2cache.demand_mshr_miss_rate::.cpu.dcache.prefetcher     0.806452                       # mshr miss rate for demand accesses
system.l2cache.demand_mshr_miss_rate::total     0.584219                       # mshr miss rate for demand accesses
system.l2cache.overall_mshr_miss_rate::.cpu.inst     0.571429                       # mshr miss rate for overall accesses
system.l2cache.overall_mshr_miss_rate::.cpu.data     0.578313                       # mshr miss rate for overall accesses
system.l2cache.overall_mshr_miss_rate::.cpu.dcache.prefetcher     0.806452                       # mshr miss rate for overall accesses
system.l2cache.overall_mshr_miss_rate::total     0.584219                       # mshr miss rate for overall accesses
system.l2cache.demand_avg_mshr_miss_latency::.cpu.inst 59624.242424                       # average overall mshr miss latency
system.l2cache.demand_avg_mshr_miss_latency::.cpu.data        60025                       # average overall mshr miss latency
system.l2cache.demand_avg_mshr_miss_latency::.cpu.dcache.prefetcher 58575.080000                       # average overall mshr miss latency
system.l2cache.demand_avg_mshr_miss_latency::total 59656.044156                       # average overall mshr miss latency
system.l2cache.overall_avg_mshr_miss_latency::.cpu.inst 59624.242424                       # average overall mshr miss latency
system.l2cache.overall_avg_mshr_miss_latency::.cpu.data        60025                       # average overall mshr miss latency
system.l2cache.overall_avg_mshr_miss_latency::.cpu.dcache.prefetcher 58575.080000                       # average overall mshr miss latency
system.l2cache.overall_avg_mshr_miss_latency::total 59656.044156                       # average overall mshr miss latency
system.l2cache.replacements                       389                       # number of replacements
system.l2cache.WritebackDirty_hits::.writebacks           53                       # number of WritebackDirty hits
system.l2cache.WritebackDirty_hits::total           53                       # number of WritebackDirty hits
system.l2cache.WritebackDirty_accesses::.writebacks           53                       # number of WritebackDirty accesses(hits+misses)
system.l2cache.WritebackDirty_accesses::total           53                       # number of WritebackDirty accesses(hits+misses)
system.l2cache.CleanEvict_mshr_misses::.writebacks           16                       # number of CleanEvict MSHR misses
system.l2cache.CleanEvict_mshr_misses::total           16                       # number of CleanEvict MSHR misses
system.l2cache.CleanEvict_mshr_miss_rate::.writebacks          inf                       # mshr miss rate for CleanEvict accesses
system.l2cache.CleanEvict_mshr_miss_rate::total          inf                       # mshr miss rate for CleanEvict accesses
system.l2cache.ReadExReq_hits::.cpu.data            1                       # number of ReadExReq hits
system.l2cache.ReadExReq_hits::total                1                       # number of ReadExReq hits
system.l2cache.ReadExReq_misses::.cpu.data           11                       # number of ReadExReq misses
system.l2cache.ReadExReq_misses::total             11                       # number of ReadExReq misses
system.l2cache.ReadExReq_miss_latency::.cpu.data       823200                       # number of ReadExReq miss cycles
system.l2cache.ReadExReq_miss_latency::total       823200                       # number of ReadExReq miss cycles
system.l2cache.ReadExReq_accesses::.cpu.data           12                       # number of ReadExReq accesses(hits+misses)
system.l2cache.ReadExReq_accesses::total           12                       # number of ReadExReq accesses(hits+misses)
system.l2cache.ReadExReq_miss_rate::.cpu.data     0.916667                       # miss rate for ReadExReq accesses
system.l2cache.ReadExReq_miss_rate::total     0.916667                       # miss rate for ReadExReq accesses
system.l2cache.ReadExReq_avg_miss_latency::.cpu.data 74836.363636                       # average ReadExReq miss latency
system.l2cache.ReadExReq_avg_miss_latency::total 74836.363636                       # average ReadExReq miss latency
system.l2cache.ReadExReq_mshr_misses::.cpu.data           11                       # number of ReadExReq MSHR misses
system.l2cache.ReadExReq_mshr_misses::total           11                       # number of ReadExReq MSHR misses
system.l2cache.ReadExReq_mshr_miss_latency::.cpu.data       735200                       # number of ReadExReq MSHR miss cycles
system.l2cache.ReadExReq_mshr_miss_latency::total       735200                       # number of ReadExReq MSHR miss cycles
system.l2cache.ReadExReq_mshr_miss_rate::.cpu.data     0.916667                       # mshr miss rate for ReadExReq accesses
system.l2cache.ReadExReq_mshr_miss_rate::total     0.916667                       # mshr miss rate for ReadExReq accesses
system.l2cache.ReadExReq_avg_mshr_miss_latency::.cpu.data 66836.363636                       # average ReadExReq mshr miss latency
system.l2cache.ReadExReq_avg_mshr_miss_latency::total 66836.363636                       # average ReadExReq mshr miss latency
system.l2cache.ReadSharedReq_hits::.cpu.inst          198                       # number of ReadSharedReq hits
system.l2cache.ReadSharedReq_hits::.cpu.data           69                       # number of ReadSharedReq hits
system.l2cache.ReadSharedReq_hits::.cpu.dcache.prefetcher            6                       # number of ReadSharedReq hits
system.l2cache.ReadSharedReq_hits::total          273                       # number of ReadSharedReq hits
system.l2cache.ReadSharedReq_misses::.cpu.inst          264                       # number of ReadSharedReq misses
system.l2cache.ReadSharedReq_misses::.cpu.data           85                       # number of ReadSharedReq misses
system.l2cache.ReadSharedReq_misses::.cpu.dcache.prefetcher           25                       # number of ReadSharedReq misses
system.l2cache.ReadSharedReq_misses::total          374                       # number of ReadSharedReq misses
system.l2cache.ReadSharedReq_miss_latency::.cpu.inst     17844800                       # number of ReadSharedReq miss cycles
system.l2cache.ReadSharedReq_miss_latency::.cpu.data      5707200                       # number of ReadSharedReq miss cycles
system.l2cache.ReadSharedReq_miss_latency::.cpu.dcache.prefetcher      1664377                       # number of ReadSharedReq miss cycles
system.l2cache.ReadSharedReq_miss_latency::total     25216377                       # number of ReadSharedReq miss cycles
system.l2cache.ReadSharedReq_accesses::.cpu.inst          462                       # number of ReadSharedReq accesses(hits+misses)
system.l2cache.ReadSharedReq_accesses::.cpu.data          154                       # number of ReadSharedReq accesses(hits+misses)
system.l2cache.ReadSharedReq_accesses::.cpu.dcache.prefetcher           31                       # number of ReadSharedReq accesses(hits+misses)
system.l2cache.ReadSharedReq_accesses::total          647                       # number of ReadSharedReq accesses(hits+misses)
system.l2cache.ReadSharedReq_miss_rate::.cpu.inst     0.571429                       # miss rate for ReadSharedReq accesses
system.l2cache.ReadSharedReq_miss_rate::.cpu.data     0.551948                       # miss rate for ReadSharedReq accesses
system.l2cache.ReadSharedReq_miss_rate::.cpu.dcache.prefetcher     0.806452                       # miss rate for ReadSharedReq accesses
system.l2cache.ReadSharedReq_miss_rate::total     0.578053                       # miss rate for ReadSharedReq accesses
system.l2cache.ReadSharedReq_avg_miss_latency::.cpu.inst 67593.939394                       # average ReadSharedReq miss latency
system.l2cache.ReadSharedReq_avg_miss_latency::.cpu.data 67143.529412                       # average ReadSharedReq miss latency
system.l2cache.ReadSharedReq_avg_miss_latency::.cpu.dcache.prefetcher 66575.080000                       # average ReadSharedReq miss latency
system.l2cache.ReadSharedReq_avg_miss_latency::total 67423.467914                       # average ReadSharedReq miss latency
system.l2cache.ReadSharedReq_mshr_misses::.cpu.inst          264                       # number of ReadSharedReq MSHR misses
system.l2cache.ReadSharedReq_mshr_misses::.cpu.data           85                       # number of ReadSharedReq MSHR misses
system.l2cache.ReadSharedReq_mshr_misses::.cpu.dcache.prefetcher           25                       # number of ReadSharedReq MSHR misses
system.l2cache.ReadSharedReq_mshr_misses::total          374                       # number of ReadSharedReq MSHR misses
system.l2cache.ReadSharedReq_mshr_miss_latency::.cpu.inst     15740800                       # number of ReadSharedReq MSHR miss cycles
system.l2cache.ReadSharedReq_mshr_miss_latency::.cpu.data      5027200                       # number of ReadSharedReq MSHR miss cycles
system.l2cache.ReadSharedReq_mshr_miss_latency::.cpu.dcache.prefetcher      1464377                       # number of ReadSharedReq MSHR miss cycles
system.l2cache.ReadSharedReq_mshr_miss_latency::total     22232377                       # number of ReadSharedReq MSHR miss cycles
system.l2cache.ReadSharedReq_mshr_miss_rate::.cpu.inst     0.571429                       # mshr miss rate for ReadSharedReq accesses
system.l2cache.ReadSharedReq_mshr_miss_rate::.cpu.data     0.551948                       # mshr miss rate for ReadSharedReq accesses
system.l2cache.ReadSharedReq_mshr_miss_rate::.cpu.dcache.prefetcher     0.806452                       # mshr miss rate for ReadSharedReq accesses
system.l2cache.ReadSharedReq_mshr_miss_rate::total     0.578053                       # mshr miss rate for ReadSharedReq accesses
system.l2cache.ReadSharedReq_avg_mshr_miss_latency::.cpu.inst 59624.242424                       # average ReadSharedReq mshr miss latency
system.l2cache.ReadSharedReq_avg_mshr_miss_latency::.cpu.data 59143.529412                       # average ReadSharedReq mshr miss latency
system.l2cache.ReadSharedReq_avg_mshr_miss_latency::.cpu.dcache.prefetcher 58575.080000                       # average ReadSharedReq mshr miss latency
system.l2cache.ReadSharedReq_avg_mshr_miss_latency::total 59444.858289                       # average ReadSharedReq mshr miss latency
system.l2cache.prefetcher.pwrStateResidencyTicks::UNDEFINED     27814800                       # Cumulative time (in ticks) in various power states
system.l2cache.tags.pwrStateResidencyTicks::UNDEFINED     27814800                       # Cumulative time (in ticks) in various power states
system.l2cache.tags.tagsinuse                    4096                       # Cycle average of tags in use
system.l2cache.tags.total_refs                  14861                       # Total number of references to valid blocks.
system.l2cache.tags.sampled_refs                 4485                       # Sample count of references to valid blocks.
system.l2cache.tags.avg_refs                 3.313489                       # Average number of references to valid blocks.
system.l2cache.tags.warmup_cycle                    0                       # Cycle when the warmup percentage was hit.
system.l2cache.tags.occ_blocks::.writebacks    46.146498                       # Average occupied blocks per requestor
system.l2cache.tags.occ_blocks::.cpu.inst  1216.498804                       # Average occupied blocks per requestor
system.l2cache.tags.occ_blocks::.cpu.data  1781.796164                       # Average occupied blocks per requestor
system.l2cache.tags.occ_blocks::.cpu.dcache.prefetcher   942.825256                       # Average occupied blocks per requestor
system.l2cache.tags.occ_blocks::.l2cache.prefetcher   108.733279                       # Average occupied blocks per requestor
system.l2cache.tags.occ_percent::.writebacks     0.011266                       # Average percentage of cache occupancy
system.l2cache.tags.occ_percent::.cpu.inst     0.296997                       # Average percentage of cache occupancy
system.l2cache.tags.occ_percent::.cpu.data     0.435009                       # Average percentage of cache occupancy
system.l2cache.tags.occ_percent::.cpu.dcache.prefetcher     0.230182                       # Average percentage of cache occupancy
system.l2cache.tags.occ_percent::.l2cache.prefetcher     0.026546                       # Average percentage of cache occupancy
system.l2cache.tags.occ_percent::total       1.000000                       # Average percentage of cache occupancy
system.l2cache.tags.occ_task_id_blocks::1022          986                       # Occupied blocks per task id
system.l2cache.tags.occ_task_id_blocks::1024         3110                       # Occupied blocks per task id
system.l2cache.tags.age_task_id_blocks_1022::0           11                       # Occupied blocks per task id
system.l2cache.tags.age_task_id_blocks_1022::1           91                       # Occupied blocks per task id
system.l2cache.tags.age_task_id_blocks_1022::2          883                       # Occupied blocks per task id
system.l2cache.tags.age_task_id_blocks_1022::3            1                       # Occupied blocks per task id
system.l2cache.tags.age_task_id_blocks_1024::0          168                       # Occupied blocks per task id
system.l2cache.tags.age_task_id_blocks_1024::1          709                       # Occupied blocks per task id
system.l2cache.tags.age_task_id_blocks_1024::2         2181                       # Occupied blocks per task id
system.l2cache.tags.age_task_id_blocks_1024::3           52                       # Occupied blocks per task id
system.l2cache.tags.occ_task_id_percent::1022     0.240723                       # Percentage of cache occupancy per task id
system.l2cache.tags.occ_task_id_percent::1024     0.759277                       # Percentage of cache occupancy per task id
system.l2cache.tags.tag_accesses                10893                       # Number of tag accesses
system.l2cache.tags.data_accesses               10893                       # Number of data accesses
system.mem_ctrl.pwrStateResidencyTicks::UNDEFINED     27814800                       # Cumulative time (in ticks) in various power states
system.mem_ctrl.bytes_read::.cpu.inst           16832                       # Number of bytes read from this memory
system.mem_ctrl.bytes_read::.cpu.data            6144                       # Number of bytes read from this memory
system.mem_ctrl.bytes_read::.cpu.dcache.prefetcher         1600                       # Number of bytes read from this memory
system.mem_ctrl.bytes_read::total               24576                       # Number of bytes read from this memory
system.mem_ctrl.bytes_inst_read::.cpu.inst        16832                       # Number of instructions bytes read from this memory
system.mem_ctrl.bytes_inst_read::total          16832                       # Number of instructions bytes read from this memory
system.mem_ctrl.bytes_written::.writebacks         1216                       # Number of bytes written to this memory
system.mem_ctrl.bytes_written::total             1216                       # Number of bytes written to this memory
system.mem_ctrl.num_reads::.cpu.inst              263                       # Number of read requests responded to by this memory
system.mem_ctrl.num_reads::.cpu.data               96                       # Number of read requests responded to by this memory
system.mem_ctrl.num_reads::.cpu.dcache.prefetcher           25                       # Number of read requests responded to by this memory
system.mem_ctrl.num_reads::total                  384                       # Number of read requests responded to by this memory
system.mem_ctrl.num_writes::.writebacks            19                       # Number of write requests responded to by this memory
system.mem_ctrl.num_writes::total                  19                       # Number of write requests responded to by this memory
system.mem_ctrl.bw_read::.cpu.inst          605145462                       # Total read bandwidth from this memory (bytes/s)
system.mem_ctrl.bw_read::.cpu.data          220889598                       # Total read bandwidth from this memory (bytes/s)
system.mem_ctrl.bw_read::.cpu.dcache.prefetcher     57523333                       # Total read bandwidth from this memory (bytes/s)
system.mem_ctrl.bw_read::total              883558393                       # Total read bandwidth from this memory (bytes/s)
system.mem_ctrl.bw_inst_read::.cpu.inst     605145462                       # Instruction read bandwidth from this memory (bytes/s)
system.mem_ctrl.bw_inst_read::total         605145462                       # Instruction read bandwidth from this memory (bytes/s)
system.mem_ctrl.bw_write::.writebacks        43717733                       # Write bandwidth from this memory (bytes/s)
system.mem_ctrl.bw_write::total              43717733                       # Write bandwidth from this memory (bytes/s)
system.mem_ctrl.bw_total::.writebacks        43717733                       # Total bandwidth to/from this memory (bytes/s)
system.mem_ctrl.bw_total::.cpu.inst         605145462                       # Total bandwidth to/from this memory (bytes/s)
system.mem_ctrl.bw_total::.cpu.data         220889598                       # Total bandwidth to/from this memory (bytes/s)
system.mem_ctrl.bw_total::.cpu.dcache.prefetcher     57523333                       # Total bandwidth to/from this memory (bytes/s)
system.mem_ctrl.bw_total::total             927276126                       # Total bandwidth to/from this memory (bytes/s)

---------- End Simulation Statistics   ----------
