
---------- Begin Simulation Statistics ----------
final_tick                                 2726303200                       # Number of ticks from beginning of simulation (restored from checkpoints and never reset)
host_inst_rate                                 197291                       # Simulator instruction rate (inst/s)
host_mem_usage                                4407848                       # Number of bytes of host memory used
host_op_rate                                   365948                       # Simulator op (including micro ops) rate (op/s)
host_seconds                                    34.79                       # Real time elapsed on the host
host_tick_rate                               78368093                       # Simulator tick rate (ticks/s)
sim_freq                                 1000000000000                       # Frequency of simulated ticks
sim_insts                                     6863444                       # Number of instructions simulated
sim_ops                                      12730742                       # Number of ops (including micro ops) simulated
sim_seconds                                  0.002726                       # Number of seconds simulated
sim_ticks                                  2726303200                       # Number of ticks simulated
system.cpu.branchPred.BTBCorrect                    0                       # Number of correct BTB predictions (this stat may not work properly.
system.cpu.branchPred.BTBHitPct              0.000000                       # BTB Hit Percentage
system.cpu.branchPred.BTBHits                       0                       # Number of BTB hits
system.cpu.branchPred.BTBLookups              1366827                       # Number of BTB lookups
system.cpu.branchPred.RASInCorrect                  8                       # Number of incorrect RAS predictions.
system.cpu.branchPred.condIncorrect             64689                       # Number of conditional branches incorrect
system.cpu.branchPred.condPredicted           1421413                       # Number of conditional branches predicted
system.cpu.branchPred.indirectHits             717934                       # Number of indirect target hits.
system.cpu.branchPred.indirectLookups         1366827                       # Number of indirect predictor lookups.
system.cpu.branchPred.indirectMisses           648893                       # Number of indirect misses.
system.cpu.branchPred.lookups                 1605513                       # Number of BP lookups
system.cpu.branchPred.usedRAS                   93575                       # Number of times the RAS was used to get a target.
system.cpu.branchPredindirectMispredicted        41836                       # Number of mispredicted indirect branches.
system.cpu.cc_regfile_reads                   7710669                       # number of cc regfile reads
system.cpu.cc_regfile_writes                  5151212                       # number of cc regfile writes
system.cpu.commit.amos                              0                       # Number of atomic instructions committed
system.cpu.commit.branchMispredicts             64860                       # The number of times a branch was mispredicted
system.cpu.commit.branches                    1310134                       # Number of branches committed
system.cpu.commit.bw_lim_events               2044718                       # number cycles where commit BW limit reached
system.cpu.commit.commitNonSpecStalls             754                       # The number of times commit has been forced to stall to communicate backwards
system.cpu.commit.commitSquashedInsts         1646907                       # The number of squashed insts skipped by commit
system.cpu.commit.committedInsts              6863444                       # Number of instructions committed
system.cpu.commit.committedOps               12730742                       # Number of ops (including micro ops) committed
system.cpu.commit.committed_per_cycle::samples      6201517                       # Number of insts commited each cycle
system.cpu.commit.committed_per_cycle::mean     2.052843                       # Number of insts commited each cycle
system.cpu.commit.committed_per_cycle::stdev     1.652476                       # Number of insts commited each cycle
system.cpu.commit.committed_per_cycle::underflows            0      0.00%      0.00% # Number of insts commited each cycle
system.cpu.commit.committed_per_cycle::0      1756786     28.33%     28.33% # Number of insts commited each cycle
system.cpu.commit.committed_per_cycle::1       996894     16.08%     44.40% # Number of insts commited each cycle
system.cpu.commit.committed_per_cycle::2       654381     10.55%     54.96% # Number of insts commited each cycle
system.cpu.commit.committed_per_cycle::3       748738     12.07%     67.03% # Number of insts commited each cycle
system.cpu.commit.committed_per_cycle::4      2044718     32.97%    100.00% # Number of insts commited each cycle
system.cpu.commit.committed_per_cycle::overflows            0      0.00%    100.00% # Number of insts commited each cycle
system.cpu.commit.committed_per_cycle::min_value            0                       # Number of insts commited each cycle
system.cpu.commit.committed_per_cycle::max_value            4                       # Number of insts commited each cycle
system.cpu.commit.committed_per_cycle::total      6201517                       # Number of insts commited each cycle
system.cpu.commit.fp_insts                     372813                       # Number of committed floating point instructions.
system.cpu.commit.function_calls                82878                       # Number of function calls committed.
system.cpu.commit.int_insts                  12421662                       # Number of committed integer instructions.
system.cpu.commit.loads                       1577287                       # Number of loads committed
system.cpu.commit.membars                           1                       # Number of memory barriers committed
system.cpu.commit.op_class_0::No_OpClass        53253      0.42%      0.42% # Class of committed instruction
system.cpu.commit.op_class_0::IntAlu          9861408     77.46%     77.88% # Class of committed instruction
system.cpu.commit.op_class_0::IntMult           55431      0.44%     78.32% # Class of committed instruction
system.cpu.commit.op_class_0::IntDiv            37787      0.30%     78.61% # Class of committed instruction
system.cpu.commit.op_class_0::FloatAdd          15177      0.12%     78.73% # Class of committed instruction
system.cpu.commit.op_class_0::FloatCmp              0      0.00%     78.73% # Class of committed instruction
system.cpu.commit.op_class_0::FloatCvt           1216      0.01%     78.74% # Class of committed instruction
system.cpu.commit.op_class_0::FloatMult             0      0.00%     78.74% # Class of committed instruction
system.cpu.commit.op_class_0::FloatMultAcc            0      0.00%     78.74% # Class of committed instruction
system.cpu.commit.op_class_0::FloatDiv              0      0.00%     78.74% # Class of committed instruction
system.cpu.commit.op_class_0::FloatMisc             0      0.00%     78.74% # Class of committed instruction
system.cpu.commit.op_class_0::FloatSqrt             0      0.00%     78.74% # Class of committed instruction
system.cpu.commit.op_class_0::SimdAdd            6262      0.05%     78.79% # Class of committed instruction
system.cpu.commit.op_class_0::SimdAddAcc            0      0.00%     78.79% # Class of committed instruction
system.cpu.commit.op_class_0::SimdAlu           60413      0.47%     79.26% # Class of committed instruction
system.cpu.commit.op_class_0::SimdCmp               0      0.00%     79.26% # Class of committed instruction
system.cpu.commit.op_class_0::SimdCvt           61362      0.48%     79.75% # Class of committed instruction
system.cpu.commit.op_class_0::SimdMisc         117158      0.92%     80.67% # Class of committed instruction
system.cpu.commit.op_class_0::SimdMult              0      0.00%     80.67% # Class of committed instruction
system.cpu.commit.op_class_0::SimdMultAcc            0      0.00%     80.67% # Class of committed instruction
system.cpu.commit.op_class_0::SimdShift          1186      0.01%     80.68% # Class of committed instruction
system.cpu.commit.op_class_0::SimdShiftAcc            0      0.00%     80.68% # Class of committed instruction
system.cpu.commit.op_class_0::SimdDiv               0      0.00%     80.68% # Class of committed instruction
system.cpu.commit.op_class_0::SimdSqrt              0      0.00%     80.68% # Class of committed instruction
system.cpu.commit.op_class_0::SimdFloatAdd            0      0.00%     80.68% # Class of committed instruction
system.cpu.commit.op_class_0::SimdFloatAlu            0      0.00%     80.68% # Class of committed instruction
system.cpu.commit.op_class_0::SimdFloatCmp            0      0.00%     80.68% # Class of committed instruction
system.cpu.commit.op_class_0::SimdFloatCvt            0      0.00%     80.68% # Class of committed instruction
system.cpu.commit.op_class_0::SimdFloatDiv            0      0.00%     80.68% # Class of committed instruction
system.cpu.commit.op_class_0::SimdFloatMisc            0      0.00%     80.68% # Class of committed instruction
system.cpu.commit.op_class_0::SimdFloatMult            0      0.00%     80.68% # Class of committed instruction
system.cpu.commit.op_class_0::SimdFloatMultAcc            0      0.00%     80.68% # Class of committed instruction
system.cpu.commit.op_class_0::SimdFloatSqrt            0      0.00%     80.68% # Class of committed instruction
system.cpu.commit.op_class_0::SimdReduceAdd            0      0.00%     80.68% # Class of committed instruction
system.cpu.commit.op_class_0::SimdReduceAlu            0      0.00%     80.68% # Class of committed instruction
system.cpu.commit.op_class_0::SimdReduceCmp            0      0.00%     80.68% # Class of committed instruction
system.cpu.commit.op_class_0::SimdFloatReduceAdd            0      0.00%     80.68% # Class of committed instruction
system.cpu.commit.op_class_0::SimdFloatReduceCmp            0      0.00%     80.68% # Class of committed instruction
system.cpu.commit.op_class_0::SimdAes               0      0.00%     80.68% # Class of committed instruction
system.cpu.commit.op_class_0::SimdAesMix            0      0.00%     80.68% # Class of committed instruction
system.cpu.commit.op_class_0::SimdSha1Hash            0      0.00%     80.68% # Class of committed instruction
system.cpu.commit.op_class_0::SimdSha1Hash2            0      0.00%     80.68% # Class of committed instruction
system.cpu.commit.op_class_0::SimdSha256Hash            0      0.00%     80.68% # Class of committed instruction
system.cpu.commit.op_class_0::SimdSha256Hash2            0      0.00%     80.68% # Class of committed instruction
system.cpu.commit.op_class_0::SimdShaSigma2            0      0.00%     80.68% # Class of committed instruction
system.cpu.commit.op_class_0::SimdShaSigma3            0      0.00%     80.68% # Class of committed instruction
system.cpu.commit.op_class_0::SimdPredAlu            0      0.00%     80.68% # Class of committed instruction
system.cpu.commit.op_class_0::MemRead         1525255     11.98%     92.66% # Class of committed instruction
system.cpu.commit.op_class_0::MemWrite         862499      6.77%     99.43% # Class of committed instruction
system.cpu.commit.op_class_0::FloatMemRead        52032      0.41%     99.84% # Class of committed instruction
system.cpu.commit.op_class_0::FloatMemWrite        20303      0.16%    100.00% # Class of committed instruction
system.cpu.commit.op_class_0::IprAccess             0      0.00%    100.00% # Class of committed instruction
system.cpu.commit.op_class_0::InstPrefetch            0      0.00%    100.00% # Class of committed instruction
system.cpu.commit.op_class_0::total          12730742                       # Class of committed instruction
system.cpu.commit.refs                        2460089                       # Number of memory references committed
system.cpu.commit.swp_count                         0                       # Number of s/w prefetches committed
system.cpu.commit.vec_insts                         0                       # Number of committed Vector instructions.
system.cpu.committedInsts                     6863444                       # Number of Instructions Simulated
system.cpu.committedOps                      12730742                       # Number of Ops (including micro ops) Simulated
system.cpu.cpi                               0.993052                       # CPI: Cycles Per Instruction
system.cpu.cpi_total                         0.993052                       # CPI: Total CPI of All Threads
system.cpu.dcache.prefetcher.num_hwpf_issued         8259                       # number of hwpf issued
system.cpu.dcache.prefetcher.pfBufferHit        34759                       # number of redundant prefetches already in prefetch queue
system.cpu.dcache.prefetcher.pfIdentified        50154                       # number of prefetch candidates identified
system.cpu.dcache.prefetcher.pfInCache              0                       # number of redundant prefetches already in cache/mshr dropped
system.cpu.dcache.prefetcher.pfRemovedFull            0                       # number of prefetches dropped due to prefetch queue size
system.cpu.dcache.prefetcher.pfSpanPage          4714                       # number of prefetches that crossed the page
system.cpu.decode.BlockedCycles               1231471                       # Number of cycles decode is blocked
system.cpu.decode.DecodedInsts               14926375                       # Number of instructions handled by decode
system.cpu.decode.IdleCycles                  1218841                       # Number of cycles decode is idle
system.cpu.decode.RunCycles                   3994206                       # Number of cycles decode is running
system.cpu.decode.SquashCycles                  64972                       # Number of cycles decode is squashing
system.cpu.decode.UnblockCycles                141837                       # Number of cycles decode is unblocking
system.cpu.dtb.rdAccesses                     1737428                       # TLB accesses on read requests
system.cpu.dtb.rdMisses                          1967                       # TLB misses on read requests
system.cpu.dtb.wrAccesses                      920877                       # TLB accesses on write requests
system.cpu.dtb.wrMisses                           173                       # TLB misses on write requests
system.cpu.fetch.Branches                     1605513                       # Number of branches that fetch encountered
system.cpu.fetch.CacheLines                   1130409                       # Number of cache lines fetched
system.cpu.fetch.Cycles                       5330798                       # Number of cycles fetch has run and was not squashing or blocked
system.cpu.fetch.IcacheSquashes                 12035                       # Number of outstanding Icache misses that were squashed
system.cpu.fetch.Insts                        8306261                       # Number of instructions fetch has processed
system.cpu.fetch.MiscStallCycles                  218                       # Number of cycles fetch has spent waiting on interrupts, or bad addresses, or out of MSHRs
system.cpu.fetch.PendingQuiesceStallCycles            6                       # Number of stall cycles due to pending quiesce instructions
system.cpu.fetch.PendingTrapStallCycles          1119                       # Number of stall cycles due to pending traps
system.cpu.fetch.SquashCycles                  129944                       # Number of cycles fetch has spent squashing
system.cpu.fetch.branchRate                  0.235559                       # Number of branch fetches per cycle
system.cpu.fetch.icacheStallCycles            1254214                       # Number of cycles fetch is stalled on an Icache miss
system.cpu.fetch.predictedBranches             811509                       # Number of branches that fetch has predicted taken
system.cpu.fetch.rate                        1.218685                       # Number of inst fetches per cycle
system.cpu.fetch.rateDist::samples            6651327                       # Number of instructions fetched each cycle (Total)
system.cpu.fetch.rateDist::mean              2.305502                       # Number of instructions fetched each cycle (Total)
system.cpu.fetch.rateDist::stdev             1.864364                       # Number of instructions fetched each cycle (Total)
system.cpu.fetch.rateDist::underflows               0      0.00%      0.00% # Number of instructions fetched each cycle (Total)
system.cpu.fetch.rateDist::0                  2333737     35.09%     35.09% # Number of instructions fetched each cycle (Total)
system.cpu.fetch.rateDist::1                   423592      6.37%     41.46% # Number of instructions fetched each cycle (Total)
system.cpu.fetch.rateDist::2                   200049      3.01%     44.46% # Number of instructions fetched each cycle (Total)
system.cpu.fetch.rateDist::3                   264840      3.98%     48.44% # Number of instructions fetched each cycle (Total)
system.cpu.fetch.rateDist::4                  3429109     51.56%    100.00% # Number of instructions fetched each cycle (Total)
system.cpu.fetch.rateDist::overflows                0      0.00%    100.00% # Number of instructions fetched each cycle (Total)
system.cpu.fetch.rateDist::min_value                0                       # Number of instructions fetched each cycle (Total)
system.cpu.fetch.rateDist::max_value                4                       # Number of instructions fetched each cycle (Total)
system.cpu.fetch.rateDist::total              6651327                       # Number of instructions fetched each cycle (Total)
system.cpu.fp_regfile_reads                    633480                       # number of floating regfile reads
system.cpu.fp_regfile_writes                   333139                       # number of floating regfile writes
system.cpu.fuPool.fu_ticks_busy::IntALU(0)    710976000                       # Total ticks fu was busy
system.cpu.fuPool.fu_ticks_busy::IntALU(1)    710976000                       # Total ticks fu was busy
system.cpu.fuPool.fu_ticks_busy::IntALU(2)    710976000                       # Total ticks fu was busy
system.cpu.fuPool.fu_ticks_busy::IntALU(3)    710976000                       # Total ticks fu was busy
system.cpu.fuPool.fu_ticks_busy::IntALU(4)    710976000                       # Total ticks fu was busy
system.cpu.fuPool.fu_ticks_busy::IntALU(5)    710976000                       # Total ticks fu was busy
system.cpu.fuPool.fu_ticks_busy::IntMultDiv(0)     19425200                       # Total ticks fu was busy
system.cpu.fuPool.fu_ticks_busy::IntMultDiv(1)     19424400                       # Total ticks fu was busy
system.cpu.fuPool.fu_ticks_busy::FP_ALU(0)      1810000                       # Total ticks fu was busy
system.cpu.fuPool.fu_ticks_busy::FP_ALU(1)      1809600                       # Total ticks fu was busy
system.cpu.fuPool.fu_ticks_busy::FP_ALU(2)      1809600                       # Total ticks fu was busy
system.cpu.fuPool.fu_ticks_busy::FP_ALU(3)      1809600                       # Total ticks fu was busy
system.cpu.fuPool.fu_ticks_busy::FP_MultDiv(0)            0                       # Total ticks fu was busy
system.cpu.fuPool.fu_ticks_busy::FP_MultDiv(1)            0                       # Total ticks fu was busy
system.cpu.fuPool.fu_ticks_busy::SIMD_Unit(0)     25749200                       # Total ticks fu was busy
system.cpu.fuPool.fu_ticks_busy::SIMD_Unit(1)     25626800                       # Total ticks fu was busy
system.cpu.fuPool.fu_ticks_busy::SIMD_Unit(2)     25906800                       # Total ticks fu was busy
system.cpu.fuPool.fu_ticks_busy::SIMD_Unit(3)     24508400                       # Total ticks fu was busy
system.cpu.fuPool.fu_ticks_busy::PredALU(0)            0                       # Total ticks fu was busy
system.cpu.fuPool.fu_ticks_busy::RdWrPort(0)    269772400                       # Total ticks fu was busy
system.cpu.fuPool.fu_ticks_busy::RdWrPort(1)    269476800                       # Total ticks fu was busy
system.cpu.fuPool.fu_ticks_busy::RdWrPort(2)    269843200                       # Total ticks fu was busy
system.cpu.fuPool.fu_ticks_busy::RdWrPort(3)    269450800                       # Total ticks fu was busy
system.cpu.fuPool.fu_ticks_busy::IprPort(0)            0                       # Total ticks fu was busy
system.cpu.fuPool.fu_ticks_busy::total     5492278800                       # Total ticks fu was busy
system.cpu.icache.prefetcher.num_hwpf_issued            0                       # number of hwpf issued
system.cpu.icache.prefetcher.pfBufferHit            0                       # number of redundant prefetches already in prefetch queue
system.cpu.icache.prefetcher.pfIdentified            0                       # number of prefetch candidates identified
system.cpu.icache.prefetcher.pfInCache              0                       # number of redundant prefetches already in cache/mshr dropped
system.cpu.icache.prefetcher.pfRemovedFull            0                       # number of prefetches dropped due to prefetch queue size
system.cpu.icache.prefetcher.pfSpanPage             0                       # number of prefetches that crossed the page
system.cpu.idleCycles                          164432                       # Total number of cycles that the CPU has spent unscheduled due to idling
system.cpu.iew.branchMispredicts                80729                       # Number of branch mispredicts detected at execute
system.cpu.iew.exec_branches                  1377668                       # Number of branches executed
system.cpu.iew.exec_nop                             0                       # number of nop insts executed
system.cpu.iew.exec_rate                     2.009042                       # Inst execution rate
system.cpu.iew.exec_refs                      2658022                       # number of memory reference insts executed
system.cpu.iew.exec_stores                     918860                       # Number of stores executed
system.cpu.iew.exec_swp                             0                       # number of swp insts executed
system.cpu.iew.iewBlockCycles                  863054                       # Number of cycles IEW is blocking
system.cpu.iew.iewDispLoadInsts               1811784                       # Number of dispatched load instructions
system.cpu.iew.iewDispNonSpecInsts               1004                       # Number of dispatched non-speculative instructions
system.cpu.iew.iewDispSquashedInsts               568                       # Number of squashed instructions skipped by dispatch
system.cpu.iew.iewDispStoreInsts               974493                       # Number of dispatched store instructions
system.cpu.iew.iewDispatchedInsts            14377590                       # Number of instructions dispatched to IQ
system.cpu.iew.iewExecLoadInsts               1739162                       # Number of load instructions executed
system.cpu.iew.iewExecSquashedInsts            106120                       # Number of squashed instructions skipped in execute
system.cpu.iew.iewExecutedInsts              13693146                       # Number of executed instructions
system.cpu.iew.iewIQFullEvents                   3242                       # Number of times the IQ has become full, causing a stall
system.cpu.iew.iewIdleCycles                        0                       # Number of cycles IEW is idle
system.cpu.iew.iewLSQFullEvents                  7669                       # Number of times the LSQ has become full, causing a stall
system.cpu.iew.iewSquashCycles                  64972                       # Number of cycles IEW is squashing
system.cpu.iew.iewUnblockCycles                 13761                       # Number of cycles IEW is unblocking
system.cpu.iew.lsq.thread0.blockedLoads             0                       # Number of blocked loads due to partial load-store forwarding
system.cpu.iew.lsq.thread0.cacheBlocked           636                       # Number of times an access to memory failed due to the cache being blocked
system.cpu.iew.lsq.thread0.forwLoads            95228                       # Number of loads that had data forwarded from stores
system.cpu.iew.lsq.thread0.ignoredResponses          249                       # Number of memory responses ignored because the instruction is squashed
system.cpu.iew.lsq.thread0.invAddrLoads             0                       # Number of loads ignored due to an invalid address
system.cpu.iew.lsq.thread0.invAddrSwpfs             0                       # Number of software prefetches ignored due to an invalid address
system.cpu.iew.lsq.thread0.memOrderViolation          123                       # Number of memory ordering violations
system.cpu.iew.lsq.thread0.rescheduledLoads           77                       # Number of loads that were rescheduled
system.cpu.iew.lsq.thread0.squashedLoads       234495                       # Number of loads squashed
system.cpu.iew.lsq.thread0.squashedStores        91690                       # Number of stores squashed
system.cpu.iew.memOrderViolationEvents            123                       # Number of memory order violations
system.cpu.iew.predictedNotTakenIncorrect        65469                       # Number of branches that were predicted not taken incorrectly
system.cpu.iew.predictedTakenIncorrect          15260                       # Number of branches that were predicted taken incorrectly
system.cpu.iew.wb_consumers                  16669960                       # num instructions consuming a value
system.cpu.iew.wb_count                      13644947                       # cumulative count of insts written-back
system.cpu.iew.wb_fanout                     0.603076                       # average fanout of values written-back
system.cpu.iew.wb_producers                  10053260                       # num instructions producing a value
system.cpu.iew.wb_rate                       2.001970                       # insts written-back per cycle
system.cpu.iew.wb_sent                       13664641                       # cumulative count of insts sent to commit
system.cpu.int_regfile_reads                 20721139                       # number of integer regfile reads
system.cpu.int_regfile_writes                11128591                       # number of integer regfile writes
system.cpu.ipc                               1.006996                       # IPC: Instructions Per Cycle
system.cpu.ipc_total                         1.006996                       # IPC: Total IPC of All Threads
system.cpu.iq.FU_type_0::No_OpClass             68569      0.50%      0.50% # Type of FU issued
system.cpu.iq.FU_type_0::IntAlu              10664641     77.28%     77.78% # Type of FU issued
system.cpu.iq.FU_type_0::IntMult                55463      0.40%     78.18% # Type of FU issued
system.cpu.iq.FU_type_0::IntDiv                 41661      0.30%     78.48% # Type of FU issued
system.cpu.iq.FU_type_0::FloatAdd               16853      0.12%     78.61% # Type of FU issued
system.cpu.iq.FU_type_0::FloatCmp                   0      0.00%     78.61% # Type of FU issued
system.cpu.iq.FU_type_0::FloatCvt                1244      0.01%     78.62% # Type of FU issued
system.cpu.iq.FU_type_0::FloatMult                  0      0.00%     78.62% # Type of FU issued
system.cpu.iq.FU_type_0::FloatMultAcc               0      0.00%     78.62% # Type of FU issued
system.cpu.iq.FU_type_0::FloatDiv                   0      0.00%     78.62% # Type of FU issued
system.cpu.iq.FU_type_0::FloatMisc                  0      0.00%     78.62% # Type of FU issued
system.cpu.iq.FU_type_0::FloatSqrt                  0      0.00%     78.62% # Type of FU issued
system.cpu.iq.FU_type_0::SimdAdd                 6998      0.05%     78.67% # Type of FU issued
system.cpu.iq.FU_type_0::SimdAddAcc                 0      0.00%     78.67% # Type of FU issued
system.cpu.iq.FU_type_0::SimdAlu                63977      0.46%     79.13% # Type of FU issued
system.cpu.iq.FU_type_0::SimdCmp                    0      0.00%     79.13% # Type of FU issued
system.cpu.iq.FU_type_0::SimdCvt                63355      0.46%     79.59% # Type of FU issued
system.cpu.iq.FU_type_0::SimdMisc              117803      0.85%     80.44% # Type of FU issued
system.cpu.iq.FU_type_0::SimdMult                   0      0.00%     80.44% # Type of FU issued
system.cpu.iq.FU_type_0::SimdMultAcc                0      0.00%     80.44% # Type of FU issued
system.cpu.iq.FU_type_0::SimdShift               2345      0.02%     80.46% # Type of FU issued
system.cpu.iq.FU_type_0::SimdShiftAcc               0      0.00%     80.46% # Type of FU issued
system.cpu.iq.FU_type_0::SimdDiv                    0      0.00%     80.46% # Type of FU issued
system.cpu.iq.FU_type_0::SimdSqrt                   0      0.00%     80.46% # Type of FU issued
system.cpu.iq.FU_type_0::SimdFloatAdd               0      0.00%     80.46% # Type of FU issued
system.cpu.iq.FU_type_0::SimdFloatAlu               0      0.00%     80.46% # Type of FU issued
system.cpu.iq.FU_type_0::SimdFloatCmp               0      0.00%     80.46% # Type of FU issued
system.cpu.iq.FU_type_0::SimdFloatCvt               0      0.00%     80.46% # Type of FU issued
system.cpu.iq.FU_type_0::SimdFloatDiv               0      0.00%     80.46% # Type of FU issued
system.cpu.iq.FU_type_0::SimdFloatMisc              0      0.00%     80.46% # Type of FU issued
system.cpu.iq.FU_type_0::SimdFloatMult              0      0.00%     80.46% # Type of FU issued
system.cpu.iq.FU_type_0::SimdFloatMultAcc            0      0.00%     80.46% # Type of FU issued
system.cpu.iq.FU_type_0::SimdFloatSqrt              0      0.00%     80.46% # Type of FU issued
system.cpu.iq.FU_type_0::SimdReduceAdd              0      0.00%     80.46% # Type of FU issued
system.cpu.iq.FU_type_0::SimdReduceAlu              0      0.00%     80.46% # Type of FU issued
system.cpu.iq.FU_type_0::SimdReduceCmp              0      0.00%     80.46% # Type of FU issued
system.cpu.iq.FU_type_0::SimdFloatReduceAdd            0      0.00%     80.46% # Type of FU issued
system.cpu.iq.FU_type_0::SimdFloatReduceCmp            0      0.00%     80.46% # Type of FU issued
system.cpu.iq.FU_type_0::SimdAes                    0      0.00%     80.46% # Type of FU issued
system.cpu.iq.FU_type_0::SimdAesMix                 0      0.00%     80.46% # Type of FU issued
system.cpu.iq.FU_type_0::SimdSha1Hash               0      0.00%     80.46% # Type of FU issued
system.cpu.iq.FU_type_0::SimdSha1Hash2              0      0.00%     80.46% # Type of FU issued
system.cpu.iq.FU_type_0::SimdSha256Hash             0      0.00%     80.46% # Type of FU issued
system.cpu.iq.FU_type_0::SimdSha256Hash2            0      0.00%     80.46% # Type of FU issued
system.cpu.iq.FU_type_0::SimdShaSigma2              0      0.00%     80.46% # Type of FU issued
system.cpu.iq.FU_type_0::SimdShaSigma3              0      0.00%     80.46% # Type of FU issued
system.cpu.iq.FU_type_0::SimdPredAlu                0      0.00%     80.46% # Type of FU issued
system.cpu.iq.FU_type_0::MemRead              1706890     12.37%     92.83% # Type of FU issued
system.cpu.iq.FU_type_0::MemWrite              909486      6.59%     99.42% # Type of FU issued
system.cpu.iq.FU_type_0::FloatMemRead           58381      0.42%     99.84% # Type of FU issued
system.cpu.iq.FU_type_0::FloatMemWrite          21603      0.16%    100.00% # Type of FU issued
system.cpu.iq.FU_type_0::IprAccess                  0      0.00%    100.00% # Type of FU issued
system.cpu.iq.FU_type_0::InstPrefetch               0      0.00%    100.00% # Type of FU issued
system.cpu.iq.FU_type_0::total               13799269                       # Type of FU issued
system.cpu.iq.fp_alu_accesses                  390464                       # Number of floating point alu accesses
system.cpu.iq.fp_inst_queue_reads              782444                       # Number of floating instruction queue reads
system.cpu.iq.fp_inst_queue_wakeup_accesses       386655                       # Number of floating instruction queue wakeup accesses
system.cpu.iq.fp_inst_queue_writes             433255                       # Number of floating instruction queue writes
system.cpu.iq.fu_busy_cnt                           0                       # FU busy when requested
system.cpu.iq.fu_busy_rate                          0                       # FU busy rate (busy events/executed inst)
system.cpu.iq.fu_full::No_OpClass                   0                       # attempts to use FU when none available
system.cpu.iq.fu_full::IntAlu                       0                       # attempts to use FU when none available
system.cpu.iq.fu_full::IntMult                      0                       # attempts to use FU when none available
system.cpu.iq.fu_full::IntDiv                       0                       # attempts to use FU when none available
system.cpu.iq.fu_full::FloatAdd                     0                       # attempts to use FU when none available
system.cpu.iq.fu_full::FloatCmp                     0                       # attempts to use FU when none available
system.cpu.iq.fu_full::FloatCvt                     0                       # attempts to use FU when none available
system.cpu.iq.fu_full::FloatMult                    0                       # attempts to use FU when none available
system.cpu.iq.fu_full::FloatMultAcc                 0                       # attempts to use FU when none available
system.cpu.iq.fu_full::FloatDiv                     0                       # attempts to use FU when none available
system.cpu.iq.fu_full::FloatMisc                    0                       # attempts to use FU when none available
system.cpu.iq.fu_full::FloatSqrt                    0                       # attempts to use FU when none available
system.cpu.iq.fu_full::SimdAdd                      0                       # attempts to use FU when none available
system.cpu.iq.fu_full::SimdAddAcc                   0                       # attempts to use FU when none available
system.cpu.iq.fu_full::SimdAlu                      0                       # attempts to use FU when none available
system.cpu.iq.fu_full::SimdCmp                      0                       # attempts to use FU when none available
system.cpu.iq.fu_full::SimdCvt                      0                       # attempts to use FU when none available
system.cpu.iq.fu_full::SimdMisc                     0                       # attempts to use FU when none available
system.cpu.iq.fu_full::SimdMult                     0                       # attempts to use FU when none available
system.cpu.iq.fu_full::SimdMultAcc                  0                       # attempts to use FU when none available
system.cpu.iq.fu_full::SimdShift                    0                       # attempts to use FU when none available
system.cpu.iq.fu_full::SimdShiftAcc                 0                       # attempts to use FU when none available
system.cpu.iq.fu_full::SimdDiv                      0                       # attempts to use FU when none available
system.cpu.iq.fu_full::SimdSqrt                     0                       # attempts to use FU when none available
system.cpu.iq.fu_full::SimdFloatAdd                 0                       # attempts to use FU when none available
system.cpu.iq.fu_full::SimdFloatAlu                 0                       # attempts to use FU when none available
system.cpu.iq.fu_full::SimdFloatCmp                 0                       # attempts to use FU when none available
system.cpu.iq.fu_full::SimdFloatCvt                 0                       # attempts to use FU when none available
system.cpu.iq.fu_full::SimdFloatDiv                 0                       # attempts to use FU when none available
system.cpu.iq.fu_full::SimdFloatMisc                0                       # attempts to use FU when none available
system.cpu.iq.fu_full::SimdFloatMult                0                       # attempts to use FU when none available
system.cpu.iq.fu_full::SimdFloatMultAcc             0                       # attempts to use FU when none available
system.cpu.iq.fu_full::SimdFloatSqrt                0                       # attempts to use FU when none available
system.cpu.iq.fu_full::SimdReduceAdd                0                       # attempts to use FU when none available
system.cpu.iq.fu_full::SimdReduceAlu                0                       # attempts to use FU when none available
system.cpu.iq.fu_full::SimdReduceCmp                0                       # attempts to use FU when none available
system.cpu.iq.fu_full::SimdFloatReduceAdd            0                       # attempts to use FU when none available
system.cpu.iq.fu_full::SimdFloatReduceCmp            0                       # attempts to use FU when none available
system.cpu.iq.fu_full::SimdAes                      0                       # attempts to use FU when none available
system.cpu.iq.fu_full::SimdAesMix                   0                       # attempts to use FU when none available
system.cpu.iq.fu_full::SimdSha1Hash                 0                       # attempts to use FU when none available
system.cpu.iq.fu_full::SimdSha1Hash2                0                       # attempts to use FU when none available
system.cpu.iq.fu_full::SimdSha256Hash               0                       # attempts to use FU when none available
system.cpu.iq.fu_full::SimdSha256Hash2              0                       # attempts to use FU when none available
system.cpu.iq.fu_full::SimdShaSigma2                0                       # attempts to use FU when none available
system.cpu.iq.fu_full::SimdShaSigma3                0                       # attempts to use FU when none available
system.cpu.iq.fu_full::SimdPredAlu                  0                       # attempts to use FU when none available
system.cpu.iq.fu_full::MemRead                      0                       # attempts to use FU when none available
system.cpu.iq.fu_full::MemWrite                     0                       # attempts to use FU when none available
system.cpu.iq.fu_full::FloatMemRead                 0                       # attempts to use FU when none available
system.cpu.iq.fu_full::FloatMemWrite                0                       # attempts to use FU when none available
system.cpu.iq.fu_full::IprAccess                    0                       # attempts to use FU when none available
system.cpu.iq.fu_full::InstPrefetch                 0                       # attempts to use FU when none available
system.cpu.iq.int_alu_accesses               13340236                       # Number of integer alu accesses
system.cpu.iq.int_inst_queue_reads           33508743                       # Number of integer instruction queue reads
system.cpu.iq.int_inst_queue_wakeup_accesses     13258292                       # Number of integer instruction queue wakeup accesses
system.cpu.iq.int_inst_queue_writes          15591294                       # Number of integer instruction queue writes
system.cpu.iq.iqInstsAdded                   14376383                       # Number of instructions added to the IQ (excludes non-spec)
system.cpu.iq.iqInstsIssued                  13799269                       # Number of instructions issued
system.cpu.iq.iqNonSpecInstsAdded                1207                       # Number of non-speculative instructions added to the IQ
system.cpu.iq.iqSquashedInstsExamined         1646837                       # Number of squashed instructions iterated over during squash; mainly for profiling
system.cpu.iq.iqSquashedInstsIssued             41325                       # Number of squashed instructions issued
system.cpu.iq.iqSquashedNonSpecRemoved            453                       # Number of squashed non-spec instructions that were removed
system.cpu.iq.iqSquashedOperandsExamined      2449630                       # Number of squashed operands that are examined and possibly removed from graph
system.cpu.iq.issued_per_cycle::samples       6651327                       # Number of insts issued each cycle
system.cpu.iq.issued_per_cycle::mean         2.074664                       # Number of insts issued each cycle
system.cpu.iq.issued_per_cycle::stdev        1.567523                       # Number of insts issued each cycle
system.cpu.iq.issued_per_cycle::underflows            0      0.00%      0.00% # Number of insts issued each cycle
system.cpu.iq.issued_per_cycle::0             1795513     26.99%     26.99% # Number of insts issued each cycle
system.cpu.iq.issued_per_cycle::1              761246     11.45%     38.44% # Number of insts issued each cycle
system.cpu.iq.issued_per_cycle::2             1039704     15.63%     54.07% # Number of insts issued each cycle
system.cpu.iq.issued_per_cycle::3             1260841     18.96%     73.03% # Number of insts issued each cycle
system.cpu.iq.issued_per_cycle::4             1794023     26.97%    100.00% # Number of insts issued each cycle
system.cpu.iq.issued_per_cycle::overflows            0      0.00%    100.00% # Number of insts issued each cycle
system.cpu.iq.issued_per_cycle::min_value            0                       # Number of insts issued each cycle
system.cpu.iq.issued_per_cycle::max_value            4                       # Number of insts issued each cycle
system.cpu.iq.issued_per_cycle::total         6651327                       # Number of insts issued each cycle
system.cpu.iq.rate                           2.024612                       # Inst issue rate
system.cpu.iq.vec_alu_accesses                      0                       # Number of vector alu accesses
system.cpu.iq.vec_inst_queue_reads                  0                       # Number of vector instruction queue reads
system.cpu.iq.vec_inst_queue_wakeup_accesses            0                       # Number of vector instruction queue wakeup accesses
system.cpu.iq.vec_inst_queue_writes                 0                       # Number of vector instruction queue writes
system.cpu.itb.rdAccesses                           0                       # TLB accesses on read requests
system.cpu.itb.rdMisses                             0                       # TLB misses on read requests
system.cpu.itb.wrAccesses                     1130599                       # TLB accesses on write requests
system.cpu.itb.wrMisses                           445                       # TLB misses on write requests
system.cpu.memDep0.conflictingLoads             60646                       # Number of conflicting loads.
system.cpu.memDep0.conflictingStores            12128                       # Number of conflicting stores.
system.cpu.memDep0.insertedLoads              1811784                       # Number of loads inserted to the mem dependence unit.
system.cpu.memDep0.insertedStores              974493                       # Number of stores inserted to the mem dependence unit.
system.cpu.misc_regfile_reads                 5515945                       # number of misc regfile reads
system.cpu.misc_regfile_writes                    684                       # number of misc regfile writes
system.cpu.numCycles                          6815759                       # number of cpu cycles simulated
system.cpu.numWorkItemsCompleted                    0                       # number of work items this cpu completed
system.cpu.numWorkItemsStarted                      0                       # number of work items this cpu started
system.cpu.process.numSyscalls                     69                       # Number of system calls
system.cpu.rename.BlockCycles                 1012311                       # Number of cycles rename is blocking
system.cpu.rename.CommittedMaps              15542931                       # Number of HB maps that are committed
system.cpu.rename.FullRegisterEvents               43                       # Number of times there has been no free registers
system.cpu.rename.IQFullEvents                  69684                       # Number of times rename has blocked due to IQ full
system.cpu.rename.IdleCycles                  1309207                       # Number of cycles rename is idle
system.cpu.rename.LQFullEvents                  15758                       # Number of times rename has blocked due to LQ full
system.cpu.rename.ROBFullEvents                  4906                       # Number of times rename has blocked due to ROB full
system.cpu.rename.RenameLookups              37904659                       # Number of register rename lookups that rename has made
system.cpu.rename.RenamedInsts               14751737                       # Number of instructions processed by rename
system.cpu.rename.RenamedOperands            18027509                       # Number of destination operands rename has renamed
system.cpu.rename.RunCycles                   4029622                       # Number of cycles rename is running
system.cpu.rename.SQFullEvents                  76181                       # Number of times rename has blocked due to SQ full
system.cpu.rename.SquashCycles                  64972                       # Number of cycles rename is squashing
system.cpu.rename.UnblockCycles                215725                       # Number of cycles rename is unblocking
system.cpu.rename.UndoneMaps                  2484555                       # Number of HB maps that are undone due to squashing
system.cpu.rename.fp_rename_lookups            670486                       # Number of floating rename lookups
system.cpu.rename.int_rename_lookups         22622625                       # Number of integer rename lookups
system.cpu.rename.serializeStallCycles          19490                       # count of cycles rename stalled for serializing inst
system.cpu.rename.serializingInsts                934                       # count of serializing insts renamed
system.cpu.rename.skidInsts                    291346                       # count of insts added to the skid buffer
system.cpu.rename.tempSerializingInsts            982                       # count of temporary serializing insts renamed
system.cpu.rob.rob_reads                     18534448                       # The number of ROB reads
system.cpu.rob.rob_writes                    29206086                       # The number of ROB writes
system.cpu.timesIdled                            1685                       # Number of times that the entire CPU went into an idle state and unscheduled itself
system.l2bus.snoop_filter.hit_multi_requests           14                       # Number of requests hitting in the snoop filter with multiple (>1) holders of the requested data.
system.l2bus.snoop_filter.hit_multi_snoops            0                       # Number of snoops hitting in the snoop filter with multiple (>1) holders of the requested data.
system.l2bus.snoop_filter.hit_single_requests        19236                       # Number of requests hitting in the snoop filter with a single holder of the requested data.
system.l2bus.snoop_filter.hit_single_snoops          478                       # Number of snoops hitting in the snoop filter with a single holder of the requested data.
system.l2bus.snoop_filter.tot_requests          39753                       # Total number of requests made to the snoop filter.
system.l2bus.snoop_filter.tot_snoops              478                       # Total number of snoops made to the snoop filter.
system.l2cache.prefetcher.num_hwpf_issued          796                       # number of hwpf issued
system.l2cache.prefetcher.pfBufferHit               0                       # number of redundant prefetches already in prefetch queue
system.l2cache.prefetcher.pfIdentified            796                       # number of prefetch candidates identified
system.l2cache.prefetcher.pfInCache                 0                       # number of redundant prefetches already in cache/mshr dropped
system.l2cache.prefetcher.pfRemovedFull             0                       # number of prefetches dropped due to prefetch queue size
system.l2cache.prefetcher.pfSpanPage              100                       # number of prefetches that crossed the page
system.membus.snoop_filter.hit_multi_requests            0                       # Number of requests hitting in the snoop filter with multiple (>1) holders of the requested data.
system.membus.snoop_filter.hit_multi_snoops            0                       # Number of snoops hitting in the snoop filter with multiple (>1) holders of the requested data.
system.membus.snoop_filter.hit_single_requests         9944                       # Number of requests hitting in the snoop filter with a single holder of the requested data.
system.membus.snoop_filter.hit_single_snoops            0                       # Number of snoops hitting in the snoop filter with a single holder of the requested data.
system.membus.snoop_filter.tot_requests         24020                       # Total number of requests made to the snoop filter.
system.membus.snoop_filter.tot_snoops               0                       # Total number of snoops made to the snoop filter.
system.membus.pwrStateResidencyTicks::UNDEFINED   2726303200                       # Cumulative time (in ticks) in various power states
system.membus.trans_dist::ReadResp              12489                       # Transaction distribution
system.membus.trans_dist::WritebackDirty         1363                       # Transaction distribution
system.membus.trans_dist::CleanEvict             8581                       # Transaction distribution
system.membus.trans_dist::ReadExReq              1586                       # Transaction distribution
system.membus.trans_dist::ReadExResp             1586                       # Transaction distribution
system.membus.trans_dist::ReadSharedReq         12490                       # Transaction distribution
system.membus.pkt_count_system.l2cache.mem_side::system.mem_ctrl.port        38095                       # Packet count per connected master and slave (bytes)
system.membus.pkt_count_system.l2cache.mem_side::total        38095                       # Packet count per connected master and slave (bytes)
system.membus.pkt_count::total                  38095                       # Packet count per connected master and slave (bytes)
system.membus.pkt_size_system.l2cache.mem_side::system.mem_ctrl.port       988032                       # Cumulative packet size per connected master and slave (bytes)
system.membus.pkt_size_system.l2cache.mem_side::total       988032                       # Cumulative packet size per connected master and slave (bytes)
system.membus.pkt_size::total                  988032                       # Cumulative packet size per connected master and slave (bytes)
system.membus.snoops                                0                       # Total snoops (count)
system.membus.snoopTraffic                          0                       # Total snoop traffic (bytes)
system.membus.snoop_fanout::samples             14076                       # Request fanout histogram
system.membus.snoop_fanout::mean                    0                       # Request fanout histogram
system.membus.snoop_fanout::stdev                   0                       # Request fanout histogram
system.membus.snoop_fanout::underflows              0      0.00%      0.00% # Request fanout histogram
system.membus.snoop_fanout::0                   14076    100.00%    100.00% # Request fanout histogram
system.membus.snoop_fanout::1                       0      0.00%    100.00% # Request fanout histogram
system.membus.snoop_fanout::overflows               0      0.00%    100.00% # Request fanout histogram
system.membus.snoop_fanout::min_value               0                       # Request fanout histogram
system.membus.snoop_fanout::max_value               0                       # Request fanout histogram
system.membus.snoop_fanout::total               14076                       # Request fanout histogram
system.membus.reqLayer2.occupancy            11827852                       # Layer occupancy (ticks)
system.membus.reqLayer2.utilization               0.4                       # Layer utilization (%)
system.membus.respLayer0.occupancy           30536548                       # Layer occupancy (ticks)
system.membus.respLayer0.utilization              1.1                       # Layer utilization (%)
system.l2bus.pwrStateResidencyTicks::UNDEFINED   2726303200                       # Cumulative time (in ticks) in various power states
system.l2bus.trans_dist::ReadResp               18207                       # Transaction distribution
system.l2bus.trans_dist::WritebackDirty          4248                       # Transaction distribution
system.l2bus.trans_dist::CleanEvict             25027                       # Transaction distribution
system.l2bus.trans_dist::HardPFReq               1117                       # Transaction distribution
system.l2bus.trans_dist::ReadExReq               2309                       # Transaction distribution
system.l2bus.trans_dist::ReadExResp              2309                       # Transaction distribution
system.l2bus.trans_dist::ReadSharedReq          18208                       # Transaction distribution
system.l2bus.pkt_count_system.cpu.icache.mem_side::system.l2cache.cpu_side         9064                       # Packet count per connected master and slave (bytes)
system.l2bus.pkt_count_system.cpu.dcache.mem_side::system.l2cache.cpu_side        51200                       # Packet count per connected master and slave (bytes)
system.l2bus.pkt_count::total                   60264                       # Packet count per connected master and slave (bytes)
system.l2bus.pkt_size_system.cpu.icache.mem_side::system.l2cache.cpu_side       198912                       # Cumulative packet size per connected master and slave (bytes)
system.l2bus.pkt_size_system.cpu.dcache.mem_side::system.l2cache.cpu_side      1298432                       # Cumulative packet size per connected master and slave (bytes)
system.l2bus.pkt_size::total                  1497344                       # Cumulative packet size per connected master and slave (bytes)
system.l2bus.snoops                             11161                       # Total snoops (count)
system.l2bus.snoopTraffic                       87552                       # Total snoop traffic (bytes)
system.l2bus.snoop_fanout::samples              31673                       # Request fanout histogram
system.l2bus.snoop_fanout::mean              0.015534                       # Request fanout histogram
system.l2bus.snoop_fanout::stdev             0.123665                       # Request fanout histogram
system.l2bus.snoop_fanout::underflows               0      0.00%      0.00% # Request fanout histogram
system.l2bus.snoop_fanout::0                    31181     98.45%     98.45% # Request fanout histogram
system.l2bus.snoop_fanout::1                      492      1.55%    100.00% # Request fanout histogram
system.l2bus.snoop_fanout::2                        0      0.00%    100.00% # Request fanout histogram
system.l2bus.snoop_fanout::overflows                0      0.00%    100.00% # Request fanout histogram
system.l2bus.snoop_fanout::min_value                0                       # Request fanout histogram
system.l2bus.snoop_fanout::max_value                1                       # Request fanout histogram
system.l2bus.snoop_fanout::total                31673                       # Request fanout histogram
system.l2bus.respLayer1.occupancy            20892396                       # Layer occupancy (ticks)
system.l2bus.respLayer1.utilization               0.8                       # Layer utilization (%)
system.l2bus.reqLayer0.occupancy             19686540                       # Layer occupancy (ticks)
system.l2bus.reqLayer0.utilization                0.7                       # Layer utilization (%)
system.l2bus.respLayer0.occupancy             3729198                       # Layer occupancy (ticks)
system.l2bus.respLayer0.utilization               0.1                       # Layer utilization (%)
system.clk_domain.clock                           400                       # Clock period in ticks
system.clk_domain.voltage_domain.voltage            1                       # Voltage in Volts
system.cpu.pwrStateResidencyTicks::ON      2726303200                       # Cumulative time (in ticks) in various power states
system.cpu.icache.pwrStateResidencyTicks::UNDEFINED   2726303200                       # Cumulative time (in ticks) in various power states
system.cpu.icache.demand_hits::.cpu.inst      1126562                       # number of demand (read+write) hits
system.cpu.icache.demand_hits::total          1126562                       # number of demand (read+write) hits
system.cpu.icache.overall_hits::.cpu.inst      1126562                       # number of overall hits
system.cpu.icache.overall_hits::total         1126562                       # number of overall hits
system.cpu.icache.demand_misses::.cpu.inst         3846                       # number of demand (read+write) misses
system.cpu.icache.demand_misses::total           3846                       # number of demand (read+write) misses
system.cpu.icache.overall_misses::.cpu.inst         3846                       # number of overall misses
system.cpu.icache.overall_misses::total          3846                       # number of overall misses
system.cpu.icache.demand_miss_latency::.cpu.inst    183146800                       # number of demand (read+write) miss cycles
system.cpu.icache.demand_miss_latency::total    183146800                       # number of demand (read+write) miss cycles
system.cpu.icache.overall_miss_latency::.cpu.inst    183146800                       # number of overall miss cycles
system.cpu.icache.overall_miss_latency::total    183146800                       # number of overall miss cycles
system.cpu.icache.demand_accesses::.cpu.inst      1130408                       # number of demand (read+write) accesses
system.cpu.icache.demand_accesses::total      1130408                       # number of demand (read+write) accesses
system.cpu.icache.overall_accesses::.cpu.inst      1130408                       # number of overall (read+write) accesses
system.cpu.icache.overall_accesses::total      1130408                       # number of overall (read+write) accesses
system.cpu.icache.demand_miss_rate::.cpu.inst     0.003402                       # miss rate for demand accesses
system.cpu.icache.demand_miss_rate::total     0.003402                       # miss rate for demand accesses
system.cpu.icache.overall_miss_rate::.cpu.inst     0.003402                       # miss rate for overall accesses
system.cpu.icache.overall_miss_rate::total     0.003402                       # miss rate for overall accesses
system.cpu.icache.demand_avg_miss_latency::.cpu.inst 47620.072803                       # average overall miss latency
system.cpu.icache.demand_avg_miss_latency::total 47620.072803                       # average overall miss latency
system.cpu.icache.overall_avg_miss_latency::.cpu.inst 47620.072803                       # average overall miss latency
system.cpu.icache.overall_avg_miss_latency::total 47620.072803                       # average overall miss latency
system.cpu.icache.blocked_cycles::no_mshrs          173                       # number of cycles access was blocked
system.cpu.icache.blocked_cycles::no_targets            0                       # number of cycles access was blocked
system.cpu.icache.blocked::no_mshrs                 4                       # number of cycles access was blocked
system.cpu.icache.blocked::no_targets               0                       # number of cycles access was blocked
system.cpu.icache.avg_blocked_cycles::no_mshrs    43.250000                       # average number of cycles each access was blocked
system.cpu.icache.avg_blocked_cycles::no_targets          nan                       # average number of cycles each access was blocked
system.cpu.icache.writebacks::.writebacks            3                       # number of writebacks
system.cpu.icache.writebacks::total                 3                       # number of writebacks
system.cpu.icache.demand_mshr_hits::.cpu.inst          738                       # number of demand (read+write) MSHR hits
system.cpu.icache.demand_mshr_hits::total          738                       # number of demand (read+write) MSHR hits
system.cpu.icache.overall_mshr_hits::.cpu.inst          738                       # number of overall MSHR hits
system.cpu.icache.overall_mshr_hits::total          738                       # number of overall MSHR hits
system.cpu.icache.demand_mshr_misses::.cpu.inst         3108                       # number of demand (read+write) MSHR misses
system.cpu.icache.demand_mshr_misses::total         3108                       # number of demand (read+write) MSHR misses
system.cpu.icache.overall_mshr_misses::.cpu.inst         3108                       # number of overall MSHR misses
system.cpu.icache.overall_mshr_misses::total         3108                       # number of overall MSHR misses
system.cpu.icache.demand_mshr_miss_latency::.cpu.inst    147798400                       # number of demand (read+write) MSHR miss cycles
system.cpu.icache.demand_mshr_miss_latency::total    147798400                       # number of demand (read+write) MSHR miss cycles
system.cpu.icache.overall_mshr_miss_latency::.cpu.inst    147798400                       # number of overall MSHR miss cycles
system.cpu.icache.overall_mshr_miss_latency::total    147798400                       # number of overall MSHR miss cycles
system.cpu.icache.demand_mshr_miss_rate::.cpu.inst     0.002749                       # mshr miss rate for demand accesses
system.cpu.icache.demand_mshr_miss_rate::total     0.002749                       # mshr miss rate for demand accesses
system.cpu.icache.overall_mshr_miss_rate::.cpu.inst     0.002749                       # mshr miss rate for overall accesses
system.cpu.icache.overall_mshr_miss_rate::total     0.002749                       # mshr miss rate for overall accesses
system.cpu.icache.demand_avg_mshr_miss_latency::.cpu.inst 47554.182754                       # average overall mshr miss latency
system.cpu.icache.demand_avg_mshr_miss_latency::total 47554.182754                       # average overall mshr miss latency
system.cpu.icache.overall_avg_mshr_miss_latency::.cpu.inst 47554.182754                       # average overall mshr miss latency
system.cpu.icache.overall_avg_mshr_miss_latency::total 47554.182754                       # average overall mshr miss latency
system.cpu.icache.replacements                   2851                       # number of replacements
system.cpu.icache.ReadReq_hits::.cpu.inst      1126562                       # number of ReadReq hits
system.cpu.icache.ReadReq_hits::total         1126562                       # number of ReadReq hits
system.cpu.icache.ReadReq_misses::.cpu.inst         3846                       # number of ReadReq misses
system.cpu.icache.ReadReq_misses::total          3846                       # number of ReadReq misses
system.cpu.icache.ReadReq_miss_latency::.cpu.inst    183146800                       # number of ReadReq miss cycles
system.cpu.icache.ReadReq_miss_latency::total    183146800                       # number of ReadReq miss cycles
system.cpu.icache.ReadReq_accesses::.cpu.inst      1130408                       # number of ReadReq accesses(hits+misses)
system.cpu.icache.ReadReq_accesses::total      1130408                       # number of ReadReq accesses(hits+misses)
system.cpu.icache.ReadReq_miss_rate::.cpu.inst     0.003402                       # miss rate for ReadReq accesses
system.cpu.icache.ReadReq_miss_rate::total     0.003402                       # miss rate for ReadReq accesses
system.cpu.icache.ReadReq_avg_miss_latency::.cpu.inst 47620.072803                       # average ReadReq miss latency
system.cpu.icache.ReadReq_avg_miss_latency::total 47620.072803                       # average ReadReq miss latency
system.cpu.icache.ReadReq_mshr_hits::.cpu.inst          738                       # number of ReadReq MSHR hits
system.cpu.icache.ReadReq_mshr_hits::total          738                       # number of ReadReq MSHR hits
system.cpu.icache.ReadReq_mshr_misses::.cpu.inst         3108                       # number of ReadReq MSHR misses
system.cpu.icache.ReadReq_mshr_misses::total         3108                       # number of ReadReq MSHR misses
system.cpu.icache.ReadReq_mshr_miss_latency::.cpu.inst    147798400                       # number of ReadReq MSHR miss cycles
system.cpu.icache.ReadReq_mshr_miss_latency::total    147798400                       # number of ReadReq MSHR miss cycles
system.cpu.icache.ReadReq_mshr_miss_rate::.cpu.inst     0.002749                       # mshr miss rate for ReadReq accesses
system.cpu.icache.ReadReq_mshr_miss_rate::total     0.002749                       # mshr miss rate for ReadReq accesses
system.cpu.icache.ReadReq_avg_mshr_miss_latency::.cpu.inst 47554.182754                       # average ReadReq mshr miss latency
system.cpu.icache.ReadReq_avg_mshr_miss_latency::total 47554.182754                       # average ReadReq mshr miss latency
system.cpu.icache.prefetcher.pwrStateResidencyTicks::UNDEFINED   2726303200                       # Cumulative time (in ticks) in various power states
system.cpu.icache.tags.pwrStateResidencyTicks::UNDEFINED   2726303200                       # Cumulative time (in ticks) in various power states
system.cpu.icache.tags.tagsinuse           254.998485                       # Cycle average of tags in use
system.cpu.icache.tags.total_refs              570391                       # Total number of references to valid blocks.
system.cpu.icache.tags.sampled_refs              2851                       # Sample count of references to valid blocks.
system.cpu.icache.tags.avg_refs            200.066994                       # Average number of references to valid blocks.
system.cpu.icache.tags.warmup_cycle             66400                       # Cycle when the warmup percentage was hit.
system.cpu.icache.tags.occ_blocks::.cpu.inst   254.998485                       # Average occupied blocks per requestor
system.cpu.icache.tags.occ_percent::.cpu.inst     0.996088                       # Average percentage of cache occupancy
system.cpu.icache.tags.occ_percent::total     0.996088                       # Average percentage of cache occupancy
system.cpu.icache.tags.occ_task_id_blocks::1024          256                       # Occupied blocks per task id
system.cpu.icache.tags.age_task_id_blocks_1024::0           99                       # Occupied blocks per task id
system.cpu.icache.tags.age_task_id_blocks_1024::2            1                       # Occupied blocks per task id
system.cpu.icache.tags.age_task_id_blocks_1024::3          156                       # Occupied blocks per task id
system.cpu.icache.tags.occ_task_id_percent::1024            1                       # Percentage of cache occupancy per task id
system.cpu.icache.tags.tag_accesses           2263923                       # Number of tag accesses
system.cpu.icache.tags.data_accesses          2263923                       # Number of data accesses
system.cpu.dtb.walker.pwrStateResidencyTicks::UNDEFINED   2726303200                       # Cumulative time (in ticks) in various power states
system.cpu.interrupts.clk_domain.clock           6400                       # Clock period in ticks
system.cpu.itb.walker.pwrStateResidencyTicks::UNDEFINED   2726303200                       # Cumulative time (in ticks) in various power states
system.cpu.dcache.pwrStateResidencyTicks::UNDEFINED   2726303200                       # Cumulative time (in ticks) in various power states
system.cpu.dcache.demand_hits::.cpu.data      2489969                       # number of demand (read+write) hits
system.cpu.dcache.demand_hits::total          2489969                       # number of demand (read+write) hits
system.cpu.dcache.overall_hits::.cpu.data      2489969                       # number of overall hits
system.cpu.dcache.overall_hits::total         2489969                       # number of overall hits
system.cpu.dcache.demand_misses::.cpu.data        35913                       # number of demand (read+write) misses
system.cpu.dcache.demand_misses::total          35913                       # number of demand (read+write) misses
system.cpu.dcache.overall_misses::.cpu.data        35913                       # number of overall misses
system.cpu.dcache.overall_misses::total         35913                       # number of overall misses
system.cpu.dcache.demand_miss_latency::.cpu.data   1725132800                       # number of demand (read+write) miss cycles
system.cpu.dcache.demand_miss_latency::total   1725132800                       # number of demand (read+write) miss cycles
system.cpu.dcache.overall_miss_latency::.cpu.data   1725132800                       # number of overall miss cycles
system.cpu.dcache.overall_miss_latency::total   1725132800                       # number of overall miss cycles
system.cpu.dcache.demand_accesses::.cpu.data      2525882                       # number of demand (read+write) accesses
system.cpu.dcache.demand_accesses::total      2525882                       # number of demand (read+write) accesses
system.cpu.dcache.overall_accesses::.cpu.data      2525882                       # number of overall (read+write) accesses
system.cpu.dcache.overall_accesses::total      2525882                       # number of overall (read+write) accesses
system.cpu.dcache.demand_miss_rate::.cpu.data     0.014218                       # miss rate for demand accesses
system.cpu.dcache.demand_miss_rate::total     0.014218                       # miss rate for demand accesses
system.cpu.dcache.overall_miss_rate::.cpu.data     0.014218                       # miss rate for overall accesses
system.cpu.dcache.overall_miss_rate::total     0.014218                       # miss rate for overall accesses
system.cpu.dcache.demand_avg_miss_latency::.cpu.data 48036.443628                       # average overall miss latency
system.cpu.dcache.demand_avg_miss_latency::total 48036.443628                       # average overall miss latency
system.cpu.dcache.overall_avg_miss_latency::.cpu.data 48036.443628                       # average overall miss latency
system.cpu.dcache.overall_avg_miss_latency::total 48036.443628                       # average overall miss latency
system.cpu.dcache.blocked_cycles::no_mshrs        29943                       # number of cycles access was blocked
system.cpu.dcache.blocked_cycles::no_targets          306                       # number of cycles access was blocked
system.cpu.dcache.blocked::no_mshrs               774                       # number of cycles access was blocked
system.cpu.dcache.blocked::no_targets               4                       # number of cycles access was blocked
system.cpu.dcache.avg_blocked_cycles::no_mshrs    38.686047                       # average number of cycles each access was blocked
system.cpu.dcache.avg_blocked_cycles::no_targets    76.500000                       # average number of cycles each access was blocked
system.cpu.dcache.unused_prefetches              1908                       # number of HardPF blocks evicted w/o reference
system.cpu.dcache.writebacks::.writebacks         2882                       # number of writebacks
system.cpu.dcache.writebacks::total              2882                       # number of writebacks
system.cpu.dcache.demand_mshr_hits::.cpu.data        23023                       # number of demand (read+write) MSHR hits
system.cpu.dcache.demand_mshr_hits::total        23023                       # number of demand (read+write) MSHR hits
system.cpu.dcache.overall_mshr_hits::.cpu.data        23023                       # number of overall MSHR hits
system.cpu.dcache.overall_mshr_hits::total        23023                       # number of overall MSHR hits
system.cpu.dcache.demand_mshr_misses::.cpu.data        12890                       # number of demand (read+write) MSHR misses
system.cpu.dcache.demand_mshr_misses::total        12890                       # number of demand (read+write) MSHR misses
system.cpu.dcache.overall_mshr_misses::.cpu.data        12890                       # number of overall MSHR misses
system.cpu.dcache.overall_mshr_misses::.cpu.dcache.prefetcher         4519                       # number of overall MSHR misses
system.cpu.dcache.overall_mshr_misses::total        17409                       # number of overall MSHR misses
system.cpu.dcache.demand_mshr_miss_latency::.cpu.data    596617600                       # number of demand (read+write) MSHR miss cycles
system.cpu.dcache.demand_mshr_miss_latency::total    596617600                       # number of demand (read+write) MSHR miss cycles
system.cpu.dcache.overall_mshr_miss_latency::.cpu.data    596617600                       # number of overall MSHR miss cycles
system.cpu.dcache.overall_mshr_miss_latency::.cpu.dcache.prefetcher    257808013                       # number of overall MSHR miss cycles
system.cpu.dcache.overall_mshr_miss_latency::total    854425613                       # number of overall MSHR miss cycles
system.cpu.dcache.demand_mshr_miss_rate::.cpu.data     0.005103                       # mshr miss rate for demand accesses
system.cpu.dcache.demand_mshr_miss_rate::total     0.005103                       # mshr miss rate for demand accesses
system.cpu.dcache.overall_mshr_miss_rate::.cpu.data     0.005103                       # mshr miss rate for overall accesses
system.cpu.dcache.overall_mshr_miss_rate::.cpu.dcache.prefetcher          inf                       # mshr miss rate for overall accesses
system.cpu.dcache.overall_mshr_miss_rate::total     0.006892                       # mshr miss rate for overall accesses
system.cpu.dcache.demand_avg_mshr_miss_latency::.cpu.data 46285.306439                       # average overall mshr miss latency
system.cpu.dcache.demand_avg_mshr_miss_latency::total 46285.306439                       # average overall mshr miss latency
system.cpu.dcache.overall_avg_mshr_miss_latency::.cpu.data 46285.306439                       # average overall mshr miss latency
system.cpu.dcache.overall_avg_mshr_miss_latency::.cpu.dcache.prefetcher 57049.792653                       # average overall mshr miss latency
system.cpu.dcache.overall_avg_mshr_miss_latency::total 49079.534321                       # average overall mshr miss latency
system.cpu.dcache.replacements                  16385                       # number of replacements
system.cpu.dcache.ReadReq_hits::.cpu.data      1607494                       # number of ReadReq hits
system.cpu.dcache.ReadReq_hits::total         1607494                       # number of ReadReq hits
system.cpu.dcache.ReadReq_misses::.cpu.data        33572                       # number of ReadReq misses
system.cpu.dcache.ReadReq_misses::total         33572                       # number of ReadReq misses
system.cpu.dcache.ReadReq_miss_latency::.cpu.data   1603361600                       # number of ReadReq miss cycles
system.cpu.dcache.ReadReq_miss_latency::total   1603361600                       # number of ReadReq miss cycles
system.cpu.dcache.ReadReq_accesses::.cpu.data      1641066                       # number of ReadReq accesses(hits+misses)
system.cpu.dcache.ReadReq_accesses::total      1641066                       # number of ReadReq accesses(hits+misses)
system.cpu.dcache.ReadReq_miss_rate::.cpu.data     0.020457                       # miss rate for ReadReq accesses
system.cpu.dcache.ReadReq_miss_rate::total     0.020457                       # miss rate for ReadReq accesses
system.cpu.dcache.ReadReq_avg_miss_latency::.cpu.data 47758.894317                       # average ReadReq miss latency
system.cpu.dcache.ReadReq_avg_miss_latency::total 47758.894317                       # average ReadReq miss latency
system.cpu.dcache.ReadReq_mshr_hits::.cpu.data        22990                       # number of ReadReq MSHR hits
system.cpu.dcache.ReadReq_mshr_hits::total        22990                       # number of ReadReq MSHR hits
system.cpu.dcache.ReadReq_mshr_misses::.cpu.data        10582                       # number of ReadReq MSHR misses
system.cpu.dcache.ReadReq_mshr_misses::total        10582                       # number of ReadReq MSHR misses
system.cpu.dcache.ReadReq_mshr_miss_latency::.cpu.data    478200800                       # number of ReadReq MSHR miss cycles
system.cpu.dcache.ReadReq_mshr_miss_latency::total    478200800                       # number of ReadReq MSHR miss cycles
system.cpu.dcache.ReadReq_mshr_miss_rate::.cpu.data     0.006448                       # mshr miss rate for ReadReq accesses
system.cpu.dcache.ReadReq_mshr_miss_rate::total     0.006448                       # mshr miss rate for ReadReq accesses
system.cpu.dcache.ReadReq_avg_mshr_miss_latency::.cpu.data 45190.020790                       # average ReadReq mshr miss latency
system.cpu.dcache.ReadReq_avg_mshr_miss_latency::total 45190.020790                       # average ReadReq mshr miss latency
system.cpu.dcache.WriteReq_hits::.cpu.data       882475                       # number of WriteReq hits
system.cpu.dcache.WriteReq_hits::total         882475                       # number of WriteReq hits
system.cpu.dcache.WriteReq_misses::.cpu.data         2341                       # number of WriteReq misses
system.cpu.dcache.WriteReq_misses::total         2341                       # number of WriteReq misses
system.cpu.dcache.WriteReq_miss_latency::.cpu.data    121771200                       # number of WriteReq miss cycles
system.cpu.dcache.WriteReq_miss_latency::total    121771200                       # number of WriteReq miss cycles
system.cpu.dcache.WriteReq_accesses::.cpu.data       884816                       # number of WriteReq accesses(hits+misses)
system.cpu.dcache.WriteReq_accesses::total       884816                       # number of WriteReq accesses(hits+misses)
system.cpu.dcache.WriteReq_miss_rate::.cpu.data     0.002646                       # miss rate for WriteReq accesses
system.cpu.dcache.WriteReq_miss_rate::total     0.002646                       # miss rate for WriteReq accesses
system.cpu.dcache.WriteReq_avg_miss_latency::.cpu.data 52016.744981                       # average WriteReq miss latency
system.cpu.dcache.WriteReq_avg_miss_latency::total 52016.744981                       # average WriteReq miss latency
system.cpu.dcache.WriteReq_mshr_hits::.cpu.data           33                       # number of WriteReq MSHR hits
system.cpu.dcache.WriteReq_mshr_hits::total           33                       # number of WriteReq MSHR hits
system.cpu.dcache.WriteReq_mshr_misses::.cpu.data         2308                       # number of WriteReq MSHR misses
system.cpu.dcache.WriteReq_mshr_misses::total         2308                       # number of WriteReq MSHR misses
[...]
system.l2cache.demand_mshr_misses::.cpu.dcache.prefetcher           39                       # number of demand (read+write) MSHR misses
system.l2cache.demand_mshr_misses::total          447                       # number of demand (read+write) MSHR misses
system.l2cache.overall_mshr_misses::.cpu.inst          262                       # number of overall MSHR misses
system.l2cache.overall_mshr_misses::.cpu.data          146                       # number of overall MSHR misses
system.l2cache.overall_mshr_misses::.cpu.dcache.prefetcher           39                       # number of overall MSHR misses
system.l2cache.overall_mshr_misses::total          447                       # number of overall MSHR misses
system.l2cache.demand_mshr_miss_latency::.cpu.inst     15561200                       # number of demand (read+write) MSHR miss cycles
system.l2cache.demand_mshr_miss_latency::.cpu.data      8618000                       # number of demand (read+write) MSHR miss cycles
system.l2cache.demand_mshr_miss_latency::.cpu.dcache.prefetcher      2429964                       # number of demand (read+write) MSHR miss cycles
system.l2cache.demand_mshr_miss_latency::total     26609164                       # number of demand (read+write) MSHR miss cycles
system.l2cache.overall_mshr_miss_latency::.cpu.inst     15561200                       # number of overall MSHR miss cycles
system.l2cache.overall_mshr_miss_latency::.cpu.data      8618000                       # number of overall MSHR miss cycles
system.l2cache.overall_mshr_miss_latency::.cpu.dcache.prefetcher      2429964                       # number of overall MSHR miss cycles
system.l2cache.overall_mshr_miss_latency::total     26609164                       # number of overall MSHR miss cycles
system.l2cache.demand_mshr_miss_rate::.cpu.inst     0.371105                       # mshr miss rate for demand accesses
system.l2cache.demand_mshr_miss_rate::.cpu.data     0.345154                       # mshr miss rate for demand accesses
system.l2cache.demand_mshr_miss_rate::.cpu.dcache.prefetcher     0.684211                       # mshr miss rate for demand accesses
system.l2cache.demand_mshr_miss_rate::total     0.376897                       # mshr miss rate for demand accesses
system.l2cache.overall_mshr_miss_rate::.cpu.inst     0.371105                       # mshr miss rate for overall accesses
system.l2cache.overall_mshr_miss_rate::.cpu.data     0.345154                       # mshr miss rate for overall accesses
system.l2cache.overall_mshr_miss_rate::.cpu.dcache.prefetcher     0.684211                       # mshr miss rate for overall accesses
system.l2cache.overall_mshr_miss_rate::total     0.376897                       # mshr miss rate for overall accesses
system.l2cache.demand_avg_mshr_miss_latency::.cpu.inst 59393.893130                       # average overall mshr miss latency
system.l2cache.demand_avg_mshr_miss_latency::.cpu.data 59027.397260                       # average overall mshr miss latency
system.l2cache.demand_avg_mshr_miss_latency::.cpu.dcache.prefetcher 62306.769231                       # average overall mshr miss latency
system.l2cache.demand_avg_mshr_miss_latency::total 59528.331096                       # average overall mshr miss latency
system.l2cache.overall_avg_mshr_miss_latency::.cpu.inst 59393.893130                       # average overall mshr miss latency
system.l2cache.overall_avg_mshr_miss_latency::.cpu.data 59027.397260                       # average overall mshr miss latency
system.l2cache.overall_avg_mshr_miss_latency::.cpu.dcache.prefetcher 62306.769231                       # average overall mshr miss latency
system.l2cache.overall_avg_mshr_miss_latency::total 59528.331096                       # average overall mshr miss latency
system.l2cache.replacements                       458                       # number of replacements
system.l2cache.WritebackDirty_hits::.writebacks          268                       # number of WritebackDirty hits
system.l2cache.WritebackDirty_hits::total          268                       # number of WritebackDirty hits
system.l2cache.WritebackDirty_accesses::.writebacks          268                       # number of WritebackDirty accesses(hits+misses)
system.l2cache.WritebackDirty_accesses::total          268                       # number of WritebackDirty accesses(hits+misses)
system.l2cache.CleanEvict_mshr_misses::.writebacks           12                       # number of CleanEvict MSHR misses
system.l2cache.CleanEvict_mshr_misses::total           12                       # number of CleanEvict MSHR misses
system.l2cache.CleanEvict_mshr_miss_rate::.writebacks          inf                       # mshr miss rate for CleanEvict accesses
system.l2cache.CleanEvict_mshr_miss_rate::total          inf                       # mshr miss rate for CleanEvict accesses
system.l2cache.ReadExReq_hits::.cpu.data           69                       # number of ReadExReq hits
system.l2cache.ReadExReq_hits::total               69                       # number of ReadExReq hits
system.l2cache.ReadExReq_misses::.cpu.data           20                       # number of ReadExReq misses
system.l2cache.ReadExReq_misses::total             20                       # number of ReadExReq misses
system.l2cache.ReadExReq_miss_latency::.cpu.data      1354000                       # number of ReadExReq miss cycles
system.l2cache.ReadExReq_miss_latency::total      1354000                       # number of ReadExReq miss cycles
system.l2cache.ReadExReq_accesses::.cpu.data           89                       # number of ReadExReq accesses(hits+misses)
system.l2cache.ReadExReq_accesses::total           89                       # number of ReadExReq accesses(hits+misses)
system.l2cache.ReadExReq_miss_rate::.cpu.data     0.224719                       # miss rate for ReadExReq accesses
system.l2cache.ReadExReq_miss_rate::total     0.224719                       # miss rate for ReadExReq accesses
system.l2cache.ReadExReq_avg_miss_latency::.cpu.data        67700                       # average ReadExReq miss latency
system.l2cache.ReadExReq_avg_miss_latency::total        67700                       # average ReadExReq miss latency
system.l2cache.ReadExReq_mshr_misses::.cpu.data           20                       # number of ReadExReq MSHR misses
system.l2cache.ReadExReq_mshr_misses::total           20                       # number of ReadExReq MSHR misses
system.l2cache.ReadExReq_mshr_miss_latency::.cpu.data      1194000                       # number of ReadExReq MSHR miss cycles
system.l2cache.ReadExReq_mshr_miss_latency::total      1194000                       # number of ReadExReq MSHR miss cycles
system.l2cache.ReadExReq_mshr_miss_rate::.cpu.data     0.224719                       # mshr miss rate for ReadExReq accesses
system.l2cache.ReadExReq_mshr_miss_rate::total     0.224719                       # mshr miss rate for ReadExReq accesses
system.l2cache.ReadExReq_avg_mshr_miss_latency::.cpu.data        59700                       # average ReadExReq mshr miss latency
system.l2cache.ReadExReq_avg_mshr_miss_latency::total        59700                       # average ReadExReq mshr miss latency
system.l2cache.ReadSharedReq_hits::.cpu.inst          444                       # number of ReadSharedReq hits
system.l2cache.ReadSharedReq_hits::.cpu.data          208                       # number of ReadSharedReq hits
system.l2cache.ReadSharedReq_hits::.cpu.dcache.prefetcher           18                       # number of ReadSharedReq hits
system.l2cache.ReadSharedReq_hits::total          670                       # number of ReadSharedReq hits
system.l2cache.ReadSharedReq_misses::.cpu.inst          262                       # number of ReadSharedReq misses
system.l2cache.ReadSharedReq_misses::.cpu.data          126                       # number of ReadSharedReq misses
system.l2cache.ReadSharedReq_misses::.cpu.dcache.prefetcher           39                       # number of ReadSharedReq misses
system.l2cache.ReadSharedReq_misses::total          427                       # number of ReadSharedReq misses
system.l2cache.ReadSharedReq_miss_latency::.cpu.inst     17657200                       # number of ReadSharedReq miss cycles
system.l2cache.ReadSharedReq_miss_latency::.cpu.data      8432000                       # number of ReadSharedReq miss cycles
system.l2cache.ReadSharedReq_miss_latency::.cpu.dcache.prefetcher      2741964                       # number of ReadSharedReq miss cycles
system.l2cache.ReadSharedReq_miss_latency::total     28831164                       # number of ReadSharedReq miss cycles
system.l2cache.ReadSharedReq_accesses::.cpu.inst          706                       # number of ReadSharedReq accesses(hits+misses)
system.l2cache.ReadSharedReq_accesses::.cpu.data          334                       # number of ReadSharedReq accesses(hits+misses)
system.l2cache.ReadSharedReq_accesses::.cpu.dcache.prefetcher           57                       # number of ReadSharedReq accesses(hits+misses)
system.l2cache.ReadSharedReq_accesses::total         1097                       # number of ReadSharedReq accesses(hits+misses)
system.l2cache.ReadSharedReq_miss_rate::.cpu.inst     0.371105                       # miss rate for ReadSharedReq accesses
system.l2cache.ReadSharedReq_miss_rate::.cpu.data     0.377246                       # miss rate for ReadSharedReq accesses
system.l2cache.ReadSharedReq_miss_rate::.cpu.dcache.prefetcher     0.684211                       # miss rate for ReadSharedReq accesses
system.l2cache.ReadSharedReq_miss_rate::total     0.389243                       # miss rate for ReadSharedReq accesses
system.l2cache.ReadSharedReq_avg_miss_latency::.cpu.inst 67393.893130                       # average ReadSharedReq miss latency
system.l2cache.ReadSharedReq_avg_miss_latency::.cpu.data 66920.634921                       # average ReadSharedReq miss latency
system.l2cache.ReadSharedReq_avg_miss_latency::.cpu.dcache.prefetcher 70306.769231                       # average ReadSharedReq miss latency
system.l2cache.ReadSharedReq_avg_miss_latency::total 67520.290398                       # average ReadSharedReq miss latency
system.l2cache.ReadSharedReq_mshr_misses::.cpu.inst          262                       # number of ReadSharedReq MSHR misses
system.l2cache.ReadSharedReq_mshr_misses::.cpu.data          126                       # number of ReadSharedReq MSHR misses
system.l2cache.ReadSharedReq_mshr_misses::.cpu.dcache.prefetcher           39                       # number of ReadSharedReq MSHR misses
system.l2cache.ReadSharedReq_mshr_misses::total          427                       # number of ReadSharedReq MSHR misses
system.l2cache.ReadSharedReq_mshr_miss_latency::.cpu.inst     15561200                       # number of ReadSharedReq MSHR miss cycles
system.l2cache.ReadSharedReq_mshr_miss_latency::.cpu.data      7424000                       # number of ReadSharedReq MSHR miss cycles
system.l2cache.ReadSharedReq_mshr_miss_latency::.cpu.dcache.prefetcher      2429964                       # number of ReadSharedReq MSHR miss cycles
system.l2cache.ReadSharedReq_mshr_miss_latency::total     25415164                       # number of ReadSharedReq MSHR miss cycles
system.l2cache.ReadSharedReq_mshr_miss_rate::.cpu.inst     0.371105                       # mshr miss rate for ReadSharedReq accesses
system.l2cache.ReadSharedReq_mshr_miss_rate::.cpu.data     0.377246                       # mshr miss rate for ReadSharedReq accesses
system.l2cache.ReadSharedReq_mshr_miss_rate::.cpu.dcache.prefetcher     0.684211                       # mshr miss rate for ReadSharedReq accesses
system.l2cache.ReadSharedReq_mshr_miss_rate::total     0.389243                       # mshr miss rate for ReadSharedReq accesses
system.l2cache.ReadSharedReq_avg_mshr_miss_latency::.cpu.inst 59393.893130                       # average ReadSharedReq mshr miss latency
system.l2cache.ReadSharedReq_avg_mshr_miss_latency::.cpu.data 58920.634921                       # average ReadSharedReq mshr miss latency
system.l2cache.ReadSharedReq_avg_mshr_miss_latency::.cpu.dcache.prefetcher 62306.769231                       # average ReadSharedReq mshr miss latency
system.l2cache.ReadSharedReq_avg_mshr_miss_latency::total 59520.290398                       # average ReadSharedReq mshr miss latency
system.l2cache.prefetcher.pwrStateResidencyTicks::UNDEFINED   1463234800                       # Cumulative time (in ticks) in various power states
system.l2cache.tags.pwrStateResidencyTicks::UNDEFINED   1463234800                       # Cumulative time (in ticks) in various power states
system.l2cache.tags.tagsinuse                    4096                       # Cycle average of tags in use
system.l2cache.tags.total_refs                  14538                       # Total number of references to valid blocks.
system.l2cache.tags.sampled_refs                 4554                       # Sample count of references to valid blocks.
system.l2cache.tags.avg_refs                 3.192358                       # Average number of references to valid blocks.
system.l2cache.tags.warmup_cycle                    0                       # Cycle when the warmup percentage was hit.
system.l2cache.tags.occ_blocks::.writebacks    27.757438                       # Average occupied blocks per requestor
system.l2cache.tags.occ_blocks::.cpu.inst  1069.995611                       # Average occupied blocks per requestor
system.l2cache.tags.occ_blocks::.cpu.data  1946.120549                       # Average occupied blocks per requestor
system.l2cache.tags.occ_blocks::.cpu.dcache.prefetcher   841.164892                       # Average occupied blocks per requestor
system.l2cache.tags.occ_blocks::.l2cache.prefetcher   210.961510                       # Average occupied blocks per requestor
system.l2cache.tags.occ_percent::.writebacks     0.006777                       # Average percentage of cache occupancy
system.l2cache.tags.occ_percent::.cpu.inst     0.261229                       # Average percentage of cache occupancy
system.l2cache.tags.occ_percent::.cpu.data     0.475127                       # Average percentage of cache occupancy
system.l2cache.tags.occ_percent::.cpu.dcache.prefetcher     0.205363                       # Average percentage of cache occupancy
system.l2cache.tags.occ_percent::.l2cache.prefetcher     0.051504                       # Average percentage of cache occupancy
system.l2cache.tags.occ_percent::total              1                       # Average percentage of cache occupancy
system.l2cache.tags.occ_task_id_blocks::1022          969                       # Occupied blocks per task id
system.l2cache.tags.occ_task_id_blocks::1024         3127                       # Occupied blocks per task id
system.l2cache.tags.age_task_id_blocks_1022::0           12                       # Occupied blocks per task id
system.l2cache.tags.age_task_id_blocks_1022::1            9                       # Occupied blocks per task id
system.l2cache.tags.age_task_id_blocks_1022::3           19                       # Occupied blocks per task id
system.l2cache.tags.age_task_id_blocks_1022::4          929                       # Occupied blocks per task id
system.l2cache.tags.age_task_id_blocks_1024::0          167                       # Occupied blocks per task id
system.l2cache.tags.age_task_id_blocks_1024::1          114                       # Occupied blocks per task id
system.l2cache.tags.age_task_id_blocks_1024::2           12                       # Occupied blocks per task id
system.l2cache.tags.age_task_id_blocks_1024::3          124                       # Occupied blocks per task id
system.l2cache.tags.age_task_id_blocks_1024::4         2710                       # Occupied blocks per task id
system.l2cache.tags.occ_task_id_percent::1022     0.236572                       # Percentage of cache occupancy per task id
system.l2cache.tags.occ_task_id_percent::1024     0.763428                       # Percentage of cache occupancy per task id
system.l2cache.tags.tag_accesses                19434                       # Number of tag accesses
system.l2cache.tags.data_accesses               19434                       # Number of data accesses
system.mem_ctrl.pwrStateResidencyTicks::UNDEFINED   1463234800                       # Cumulative time (in ticks) in various power states
system.mem_ctrl.bytes_read::.cpu.inst           16768                       # Number of bytes read from this memory
system.mem_ctrl.bytes_read::.cpu.data            9344                       # Number of bytes read from this memory
system.mem_ctrl.bytes_read::.cpu.dcache.prefetcher         2496                       # Number of bytes read from this memory
system.mem_ctrl.bytes_read::total               28608                       # Number of bytes read from this memory
system.mem_ctrl.bytes_inst_read::.cpu.inst        16768                       # Number of instructions bytes read from this memory
system.mem_ctrl.bytes_inst_read::total          16768                       # Number of instructions bytes read from this memory
system.mem_ctrl.bytes_written::.writebacks         1920                       # Number of bytes written to this memory
system.mem_ctrl.bytes_written::total             1920                       # Number of bytes written to this memory
system.mem_ctrl.num_reads::.cpu.inst              262                       # Number of read requests responded to by this memory
system.mem_ctrl.num_reads::.cpu.data              146                       # Number of read requests responded to by this memory
system.mem_ctrl.num_reads::.cpu.dcache.prefetcher           39                       # Number of read requests responded to by this memory
system.mem_ctrl.num_reads::total                  447                       # Number of read requests responded to by this memory
system.mem_ctrl.num_writes::.writebacks            30                       # Number of write requests responded to by this memory
system.mem_ctrl.num_writes::total                  30                       # Number of write requests responded to by this memory
system.mem_ctrl.bw_read::.cpu.inst           11459542                       # Total read bandwidth from this memory (bytes/s)
system.mem_ctrl.bw_read::.cpu.data            6385851                       # Total read bandwidth from this memory (bytes/s)
system.mem_ctrl.bw_read::.cpu.dcache.prefetcher      1705810                       # Total read bandwidth from this memory (bytes/s)
system.mem_ctrl.bw_read::total               19551203                       # Total read bandwidth from this memory (bytes/s)
system.mem_ctrl.bw_inst_read::.cpu.inst      11459542                       # Instruction read bandwidth from this memory (bytes/s)
system.mem_ctrl.bw_inst_read::total          11459542                       # Instruction read bandwidth from this memory (bytes/s)
system.mem_ctrl.bw_write::.writebacks         1312161                       # Write bandwidth from this memory (bytes/s)
system.mem_ctrl.bw_write::total               1312161                       # Write bandwidth from this memory (bytes/s)
system.mem_ctrl.bw_total::.writebacks         1312161                       # Total bandwidth to/from this memory (bytes/s)
system.mem_ctrl.bw_total::.cpu.inst          11459542                       # Total bandwidth to/from this memory (bytes/s)
system.mem_ctrl.bw_total::.cpu.data           6385851                       # Total bandwidth to/from this memory (bytes/s)
system.mem_ctrl.bw_total::.cpu.dcache.prefetcher      1705810                       # Total bandwidth to/from this memory (bytes/s)
system.mem_ctrl.bw_total::total              20863364                       # Total bandwidth to/from this memory (bytes/s)

---------- End Simulation Statistics   ----------
