
---------- Begin Simulation Statistics ----------
final_tick                                 1100951200                       # Number of ticks from beginning of simulation (restored from checkpoints and never reset)
host_inst_rate                                 187059                       # Simulator instruction rate (inst/s)
host_mem_usage                                4402740                       # Number of bytes of host memory used
host_op_rate                                   324784                       # Simulator op (including micro ops) rate (op/s)
host_seconds                                    11.29                       # Real time elapsed on the host
host_tick_rate                               97516787                       # Simulator tick rate (ticks/s)
sim_freq                                 1000000000000                       # Frequency of simulated ticks
sim_insts                                     2111851                       # Number of instructions simulated
sim_ops                                       3666763                       # Number of ops (including micro ops) simulated
sim_seconds                                  0.001101                       # Number of seconds simulated
sim_ticks                                  1100951200                       # Number of ticks simulated
system.cpu.branchPred.BTBCorrect                    0                       # Number of correct BTB predictions (this stat may not work properly.
system.cpu.branchPred.BTBHitPct              0.000000                       # BTB Hit Percentage
system.cpu.branchPred.BTBHits                       0                       # Number of BTB hits
system.cpu.branchPred.BTBLookups               433355                       # Number of BTB lookups
system.cpu.branchPred.RASInCorrect                  4                       # Number of incorrect RAS predictions.
system.cpu.branchPred.condIncorrect             23755                       # Number of conditional branches incorrect
system.cpu.branchPred.condPredicted            463463                       # Number of conditional branches predicted
system.cpu.branchPred.indirectHits             242220                       # Number of indirect target hits.
system.cpu.branchPred.indirectLookups          433355                       # Number of indirect predictor lookups.
system.cpu.branchPred.indirectMisses           191135                       # Number of indirect misses.
system.cpu.branchPred.lookups                  491822                       # Number of BP lookups
system.cpu.branchPred.usedRAS                   12364                       # Number of times the RAS was used to get a target.
system.cpu.branchPredindirectMispredicted        11737                       # Number of mispredicted indirect branches.
system.cpu.cc_regfile_reads                   2392289                       # number of cc regfile reads
system.cpu.cc_regfile_writes                  1988418                       # number of cc regfile writes
system.cpu.commit.amos                              0                       # Number of atomic instructions committed
system.cpu.commit.branchMispredicts             23811                       # The number of times a branch was mispredicted
system.cpu.commit.branches                     350112                       # Number of branches committed
system.cpu.commit.bw_lim_events                609127                       # number cycles where commit BW limit reached
system.cpu.commit.commitNonSpecStalls             732                       # The number of times commit has been forced to stall to communicate backwards
system.cpu.commit.commitSquashedInsts          875384                       # The number of squashed insts skipped by commit
system.cpu.commit.committedInsts              2111851                       # Number of instructions committed
system.cpu.commit.committedOps                3666763                       # Number of ops (including micro ops) committed
system.cpu.commit.committed_per_cycle::samples      2362916                       # Number of insts commited each cycle
system.cpu.commit.committed_per_cycle::mean     1.551796                       # Number of insts commited each cycle
system.cpu.commit.committed_per_cycle::stdev     1.722694                       # Number of insts commited each cycle
system.cpu.commit.committed_per_cycle::underflows            0      0.00%      0.00% # Number of insts commited each cycle
system.cpu.commit.committed_per_cycle::0      1157625     48.99%     48.99% # Number of insts commited each cycle
system.cpu.commit.committed_per_cycle::1       191055      8.09%     57.08% # Number of insts commited each cycle
system.cpu.commit.committed_per_cycle::2       176127      7.45%     64.53% # Number of insts commited each cycle
system.cpu.commit.committed_per_cycle::3       228982      9.69%     74.22% # Number of insts commited each cycle
system.cpu.commit.committed_per_cycle::4       609127     25.78%    100.00% # Number of insts commited each cycle
system.cpu.commit.committed_per_cycle::overflows            0      0.00%    100.00% # Number of insts commited each cycle
system.cpu.commit.committed_per_cycle::min_value            0                       # Number of insts commited each cycle
system.cpu.commit.committed_per_cycle::max_value            4                       # Number of insts commited each cycle
system.cpu.commit.committed_per_cycle::total      2362916                       # Number of insts commited each cycle
system.cpu.commit.fp_insts                      72844                       # Number of committed floating point instructions.
system.cpu.commit.function_calls                10612                       # Number of function calls committed.
system.cpu.commit.int_insts                   3612595                       # Number of committed integer instructions.
system.cpu.commit.loads                        496550                       # Number of loads committed
system.cpu.commit.membars                           1                       # Number of memory barriers committed
system.cpu.commit.op_class_0::No_OpClass        20167      0.55%      0.55% # Class of committed instruction
system.cpu.commit.op_class_0::IntAlu          2893315     78.91%     79.46% # Class of committed instruction
system.cpu.commit.op_class_0::IntMult            3323      0.09%     79.55% # Class of committed instruction
system.cpu.commit.op_class_0::IntDiv            37816      1.03%     80.58% # Class of committed instruction
system.cpu.commit.op_class_0::FloatAdd           2834      0.08%     80.66% # Class of committed instruction
system.cpu.commit.op_class_0::FloatCmp              0      0.00%     80.66% # Class of committed instruction
system.cpu.commit.op_class_0::FloatCvt           1200      0.03%     80.69% # Class of committed instruction
system.cpu.commit.op_class_0::FloatMult             0      0.00%     80.69% # Class of committed instruction
system.cpu.commit.op_class_0::FloatMultAcc            0      0.00%     80.69% # Class of committed instruction
system.cpu.commit.op_class_0::FloatDiv              0      0.00%     80.69% # Class of committed instruction
system.cpu.commit.op_class_0::FloatMisc             0      0.00%     80.69% # Class of committed instruction
system.cpu.commit.op_class_0::FloatSqrt             0      0.00%     80.69% # Class of committed instruction
system.cpu.commit.op_class_0::SimdAdd            6184      0.17%     80.86% # Class of committed instruction
system.cpu.commit.op_class_0::SimdAddAcc            0      0.00%     80.86% # Class of committed instruction
system.cpu.commit.op_class_0::SimdAlu           11116      0.30%     81.16% # Class of committed instruction
system.cpu.commit.op_class_0::SimdCmp               0      0.00%     81.16% # Class of committed instruction
system.cpu.commit.op_class_0::SimdCvt           12050      0.33%     81.49% # Class of committed instruction
system.cpu.commit.op_class_0::SimdMisc           6479      0.18%     81.67% # Class of committed instruction
system.cpu.commit.op_class_0::SimdMult              0      0.00%     81.67% # Class of committed instruction
system.cpu.commit.op_class_0::SimdMultAcc            0      0.00%     81.67% # Class of committed instruction
system.cpu.commit.op_class_0::SimdShift          1055      0.03%     81.69% # Class of committed instruction
system.cpu.commit.op_class_0::SimdShiftAcc            0      0.00%     81.69% # Class of committed instruction
system.cpu.commit.op_class_0::SimdDiv               0      0.00%     81.69% # Class of committed instruction
system.cpu.commit.op_class_0::SimdSqrt              0      0.00%     81.69% # Class of committed instruction
system.cpu.commit.op_class_0::SimdFloatAdd            0      0.00%     81.69% # Class of committed instruction
system.cpu.commit.op_class_0::SimdFloatAlu            0      0.00%     81.69% # Class of committed instruction
system.cpu.commit.op_class_0::SimdFloatCmp            0      0.00%     81.69% # Class of committed instruction
system.cpu.commit.op_class_0::SimdFloatCvt            0      0.00%     81.69% # Class of committed instruction
system.cpu.commit.op_class_0::SimdFloatDiv            0      0.00%     81.69% # Class of committed instruction
system.cpu.commit.op_class_0::SimdFloatMisc            0      0.00%     81.69% # Class of committed instruction
system.cpu.commit.op_class_0::SimdFloatMult            0      0.00%     81.69% # Class of committed instruction
system.cpu.commit.op_class_0::SimdFloatMultAcc            0      0.00%     81.69% # Class of committed instruction
system.cpu.commit.op_class_0::SimdFloatSqrt            0      0.00%     81.69% # Class of committed instruction
system.cpu.commit.op_class_0::SimdReduceAdd            0      0.00%     81.69% # Class of committed instruction
system.cpu.commit.op_class_0::SimdReduceAlu            0      0.00%     81.69% # Class of committed instruction
system.cpu.commit.op_class_0::SimdReduceCmp            0      0.00%     81.69% # Class of committed instruction
system.cpu.commit.op_class_0::SimdFloatReduceAdd            0      0.00%     81.69% # Class of committed instruction
system.cpu.commit.op_class_0::SimdFloatReduceCmp            0      0.00%     81.69% # Class of committed instruction
system.cpu.commit.op_class_0::SimdAes               0      0.00%     81.69% # Class of committed instruction
system.cpu.commit.op_class_0::SimdAesMix            0      0.00%     81.69% # Class of committed instruction
system.cpu.commit.op_class_0::SimdSha1Hash            0      0.00%     81.69% # Class of committed instruction
system.cpu.commit.op_class_0::SimdSha1Hash2            0      0.00%     81.69% # Class of committed instruction
system.cpu.commit.op_class_0::SimdSha256Hash            0      0.00%     81.69% # Class of committed instruction
system.cpu.commit.op_class_0::SimdSha256Hash2            0      0.00%     81.69% # Class of committed instruction
system.cpu.commit.op_class_0::SimdShaSigma2            0      0.00%     81.69% # Class of committed instruction
system.cpu.commit.op_class_0::SimdShaSigma3            0      0.00%     81.69% # Class of committed instruction
system.cpu.commit.op_class_0::SimdPredAlu            0      0.00%     81.69% # Class of committed instruction
system.cpu.commit.op_class_0::MemRead          477512     13.02%     94.72% # Class of committed instruction
system.cpu.commit.op_class_0::MemWrite         162605      4.43%     99.15% # Class of committed instruction
system.cpu.commit.op_class_0::FloatMemRead        19038      0.52%     99.67% # Class of committed instruction
system.cpu.commit.op_class_0::FloatMemWrite        12069      0.33%    100.00% # Class of committed instruction
system.cpu.commit.op_class_0::IprAccess             0      0.00%    100.00% # Class of committed instruction
system.cpu.commit.op_class_0::InstPrefetch            0      0.00%    100.00% # Class of committed instruction
system.cpu.commit.op_class_0::total           3666763                       # Class of committed instruction
system.cpu.commit.refs                         671224                       # Number of memory references committed
system.cpu.commit.swp_count                         0                       # Number of s/w prefetches committed
system.cpu.commit.vec_insts                         0                       # Number of committed Vector instructions.
system.cpu.committedInsts                     2111851                       # Number of Instructions Simulated
system.cpu.committedOps                       3666763                       # Number of Ops (including micro ops) Simulated
system.cpu.cpi                               1.303302                       # CPI: Cycles Per Instruction
system.cpu.cpi_total                         1.303302                       # CPI: Total CPI of All Threads
system.cpu.dcache.prefetcher.num_hwpf_issued         8367                       # number of hwpf issued
system.cpu.dcache.prefetcher.pfBufferHit        34941                       # number of redundant prefetches already in prefetch queue
system.cpu.dcache.prefetcher.pfIdentified        49722                       # number of prefetch candidates identified
system.cpu.dcache.prefetcher.pfInCache              0                       # number of redundant prefetches already in cache/mshr dropped
system.cpu.dcache.prefetcher.pfRemovedFull            0                       # number of prefetches dropped due to prefetch queue size
system.cpu.dcache.prefetcher.pfSpanPage          4638                       # number of prefetches that crossed the page
system.cpu.decode.BlockedCycles               1034526                       # Number of cycles decode is blocked
system.cpu.decode.DecodedInsts                4753650                       # Number of instructions handled by decode
system.cpu.decode.IdleCycles                   298042                       # Number of cycles decode is idle
system.cpu.decode.RunCycles                   1154596                       # Number of cycles decode is running
system.cpu.decode.SquashCycles                  23878                       # Number of cycles decode is squashing
system.cpu.decode.UnblockCycles                 90824                       # Number of cycles decode is unblocking
system.cpu.dtb.rdAccesses                      578516                       # TLB accesses on read requests
system.cpu.dtb.rdMisses                          2051                       # TLB misses on read requests
system.cpu.dtb.wrAccesses                      193615                       # TLB accesses on write requests
system.cpu.dtb.wrMisses                           165                       # TLB misses on write requests
system.cpu.fetch.Branches                      491822                       # Number of branches that fetch encountered
system.cpu.fetch.CacheLines                    249329                       # Number of cache lines fetched
system.cpu.fetch.Cycles                       2241804                       # Number of cycles fetch has run and was not squashing or blocked
system.cpu.fetch.IcacheSquashes                  4581                       # Number of outstanding Icache misses that were squashed
system.cpu.fetch.Insts                        2873385                       # Number of instructions fetch has processed
system.cpu.fetch.MiscStallCycles                   80                       # Number of cycles fetch has spent waiting on interrupts, or bad addresses, or out of MSHRs
system.cpu.fetch.PendingQuiesceStallCycles            8                       # Number of stall cycles due to pending quiesce instructions
system.cpu.fetch.PendingTrapStallCycles           397                       # Number of stall cycles due to pending traps
system.cpu.fetch.SquashCycles                   47756                       # Number of cycles fetch has spent squashing
system.cpu.fetch.branchRate                  0.178690                       # Number of branch fetches per cycle
system.cpu.fetch.icacheStallCycles             335699                       # Number of cycles fetch is stalled on an Icache miss
system.cpu.fetch.predictedBranches             254584                       # Number of branches that fetch has predicted taken
system.cpu.fetch.rate                        1.043964                       # Number of inst fetches per cycle
system.cpu.fetch.rateDist::samples            2601866                       # Number of instructions fetched each cycle (Total)
system.cpu.fetch.rateDist::mean              1.931898                       # Number of instructions fetched each cycle (Total)
system.cpu.fetch.rateDist::stdev             1.929034                       # Number of instructions fetched each cycle (Total)
system.cpu.fetch.rateDist::underflows               0      0.00%      0.00% # Number of instructions fetched each cycle (Total)
system.cpu.fetch.rateDist::0                  1237599     47.57%     47.57% # Number of instructions fetched each cycle (Total)
system.cpu.fetch.rateDist::1                    75828      2.91%     50.48% # Number of instructions fetched each cycle (Total)
system.cpu.fetch.rateDist::2                    61602      2.37%     52.85% # Number of instructions fetched each cycle (Total)
system.cpu.fetch.rateDist::3                    79839      3.07%     55.92% # Number of instructions fetched each cycle (Total)
system.cpu.fetch.rateDist::4                  1146998     44.08%    100.00% # Number of instructions fetched each cycle (Total)
system.cpu.fetch.rateDist::overflows                0      0.00%    100.00% # Number of instructions fetched each cycle (Total)
system.cpu.fetch.rateDist::min_value                0                       # Number of instructions fetched each cycle (Total)
system.cpu.fetch.rateDist::max_value                4                       # Number of instructions fetched each cycle (Total)
system.cpu.fetch.rateDist::total              2601866                       # Number of instructions fetched each cycle (Total)
system.cpu.fp_regfile_reads                    117393                       # number of floating regfile reads
system.cpu.fp_regfile_writes                    64298                       # number of floating regfile writes
system.cpu.fuPool.fu_ticks_busy::IntALU(0)    221315600                       # Total ticks fu was busy
system.cpu.fuPool.fu_ticks_busy::IntALU(1)    221315600                       # Total ticks fu was busy
system.cpu.fuPool.fu_ticks_busy::IntALU(2)    221315200                       # Total ticks fu was busy
system.cpu.fuPool.fu_ticks_busy::IntALU(3)    221315200                       # Total ticks fu was busy
system.cpu.fuPool.fu_ticks_busy::IntALU(4)    221315200                       # Total ticks fu was busy
system.cpu.fuPool.fu_ticks_busy::IntALU(5)    221315200                       # Total ticks fu was busy
system.cpu.fuPool.fu_ticks_busy::IntMultDiv(0)      8996000                       # Total ticks fu was busy
system.cpu.fuPool.fu_ticks_busy::IntMultDiv(1)      8995200                       # Total ticks fu was busy
system.cpu.fuPool.fu_ticks_busy::FP_ALU(0)       545600                       # Total ticks fu was busy
system.cpu.fuPool.fu_ticks_busy::FP_ALU(1)       545600                       # Total ticks fu was busy
system.cpu.fuPool.fu_ticks_busy::FP_ALU(2)       545600                       # Total ticks fu was busy
system.cpu.fuPool.fu_ticks_busy::FP_ALU(3)       545200                       # Total ticks fu was busy
system.cpu.fuPool.fu_ticks_busy::FP_MultDiv(0)            0                       # Total ticks fu was busy
system.cpu.fuPool.fu_ticks_busy::FP_MultDiv(1)            0                       # Total ticks fu was busy
system.cpu.fuPool.fu_ticks_busy::SIMD_Unit(0)      4327200                       # Total ticks fu was busy
system.cpu.fuPool.fu_ticks_busy::SIMD_Unit(1)      4486800                       # Total ticks fu was busy
system.cpu.fuPool.fu_ticks_busy::SIMD_Unit(2)      4435200                       # Total ticks fu was busy
system.cpu.fuPool.fu_ticks_busy::SIMD_Unit(3)      4281200                       # Total ticks fu was busy
system.cpu.fuPool.fu_ticks_busy::PredALU(0)            0                       # Total ticks fu was busy
system.cpu.fuPool.fu_ticks_busy::RdWrPort(0)     78668800                       # Total ticks fu was busy
system.cpu.fuPool.fu_ticks_busy::RdWrPort(1)     78636000                       # Total ticks fu was busy
system.cpu.fuPool.fu_ticks_busy::RdWrPort(2)     78648400                       # Total ticks fu was busy
system.cpu.fuPool.fu_ticks_busy::RdWrPort(3)     78630000                       # Total ticks fu was busy
system.cpu.fuPool.fu_ticks_busy::IprPort(0)            0                       # Total ticks fu was busy
system.cpu.fuPool.fu_ticks_busy::total     1680178800                       # Total ticks fu was busy
system.cpu.icache.prefetcher.num_hwpf_issued            0                       # number of hwpf issued
system.cpu.icache.prefetcher.pfBufferHit            0                       # number of redundant prefetches already in prefetch queue
system.cpu.icache.prefetcher.pfIdentified            0                       # number of prefetch candidates identified
system.cpu.icache.prefetcher.pfInCache              0                       # number of redundant prefetches already in cache/mshr dropped
system.cpu.icache.prefetcher.pfRemovedFull            0                       # number of prefetches dropped due to prefetch queue size
system.cpu.icache.prefetcher.pfSpanPage             0                       # number of prefetches that crossed the page
system.cpu.idleCycles                          150513                       # Total number of cycles that the CPU has spent unscheduled due to idling
system.cpu.iew.branchMispredicts                27967                       # Number of branch mispredicts detected at execute
system.cpu.iew.exec_branches                   379896                       # Number of branches executed
system.cpu.iew.exec_nop                             0                       # number of nop insts executed
system.cpu.iew.exec_rate                     1.523313                       # Inst execution rate
system.cpu.iew.exec_refs                       773773                       # number of memory reference insts executed
system.cpu.iew.exec_stores                     193604                       # Number of stores executed
system.cpu.iew.exec_swp                             0                       # number of swp insts executed
system.cpu.iew.iewBlockCycles                  691216                       # Number of cycles IEW is blocking
system.cpu.iew.iewDispLoadInsts                610569                       # Number of dispatched load instructions
system.cpu.iew.iewDispNonSpecInsts                905                       # Number of dispatched non-speculative instructions
system.cpu.iew.iewDispSquashedInsts               568                       # Number of squashed instructions skipped by dispatch
system.cpu.iew.iewDispStoreInsts               203755                       # Number of dispatched store instructions
system.cpu.iew.iewDispatchedInsts             4542103                       # Number of instructions dispatched to IQ
system.cpu.iew.iewExecLoadInsts                580169                       # Number of load instructions executed
system.cpu.iew.iewExecSquashedInsts             33683                       # Number of squashed instructions skipped in execute
system.cpu.iew.iewExecutedInsts               4192735                       # Number of executed instructions
system.cpu.iew.iewIQFullEvents                   3388                       # Number of times the IQ has become full, causing a stall
system.cpu.iew.iewIdleCycles                        0                       # Number of cycles IEW is idle
system.cpu.iew.iewLSQFullEvents                  8045                       # Number of times the LSQ has become full, causing a stall
system.cpu.iew.iewSquashCycles                  23878                       # Number of cycles IEW is squashing
system.cpu.iew.iewUnblockCycles                 14254                       # Number of cycles IEW is unblocking
system.cpu.iew.lsq.thread0.blockedLoads             0                       # Number of blocked loads due to partial load-store forwarding
system.cpu.iew.lsq.thread0.cacheBlocked           593                       # Number of times an access to memory failed due to the cache being blocked
system.cpu.iew.lsq.thread0.forwLoads            40502                       # Number of loads that had data forwarded from stores
system.cpu.iew.lsq.thread0.ignoredResponses          224                       # Number of memory responses ignored because the instruction is squashed
system.cpu.iew.lsq.thread0.invAddrLoads             0                       # Number of loads ignored due to an invalid address
system.cpu.iew.lsq.thread0.invAddrSwpfs             0                       # Number of software prefetches ignored due to an invalid address
system.cpu.iew.lsq.thread0.memOrderViolation           80                       # Number of memory ordering violations
system.cpu.iew.lsq.thread0.rescheduledLoads            0                       # Number of loads that were rescheduled
system.cpu.iew.lsq.thread0.squashedLoads       114017                       # Number of loads squashed
system.cpu.iew.lsq.thread0.squashedStores        29080                       # Number of stores squashed
system.cpu.iew.memOrderViolationEvents             80                       # Number of memory order violations
system.cpu.iew.predictedNotTakenIncorrect        19824                       # Number of branches that were predicted not taken incorrectly
system.cpu.iew.predictedTakenIncorrect           8143                       # Number of branches that were predicted taken incorrectly
system.cpu.iew.wb_consumers                   5900766                       # num instructions consuming a value
system.cpu.iew.wb_count                       4171261                       # cumulative count of insts written-back
system.cpu.iew.wb_fanout                     0.566021                       # average fanout of values written-back
system.cpu.iew.wb_producers                   3339957                       # num instructions producing a value
system.cpu.iew.wb_rate                       1.515511                       # insts written-back per cycle
system.cpu.iew.wb_sent                        4178168                       # cumulative count of insts sent to commit
system.cpu.int_regfile_reads                  6503644                       # number of integer regfile reads
system.cpu.int_regfile_writes                 3611981                       # number of integer regfile writes
system.cpu.ipc                               0.767282                       # IPC: Instructions Per Cycle
system.cpu.ipc_total                         0.767282                       # IPC: Total IPC of All Threads
system.cpu.iq.FU_type_0::No_OpClass             25971      0.61%      0.61% # Type of FU issued
system.cpu.iq.FU_type_0::IntAlu               3319731     78.55%     79.16% # Type of FU issued
system.cpu.iq.FU_type_0::IntMult                 3353      0.08%     79.24% # Type of FU issued
system.cpu.iq.FU_type_0::IntDiv                 41625      0.98%     80.23% # Type of FU issued
system.cpu.iq.FU_type_0::FloatAdd                4207      0.10%     80.33% # Type of FU issued
system.cpu.iq.FU_type_0::FloatCmp                   0      0.00%     80.33% # Type of FU issued
system.cpu.iq.FU_type_0::FloatCvt                1248      0.03%     80.35% # Type of FU issued
system.cpu.iq.FU_type_0::FloatMult                  0      0.00%     80.35% # Type of FU issued
system.cpu.iq.FU_type_0::FloatMultAcc               0      0.00%     80.35% # Type of FU issued
system.cpu.iq.FU_type_0::FloatDiv                   0      0.00%     80.35% # Type of FU issued
system.cpu.iq.FU_type_0::FloatMisc                  0      0.00%     80.35% # Type of FU issued
system.cpu.iq.FU_type_0::FloatSqrt                  0      0.00%     80.35% # Type of FU issued
system.cpu.iq.FU_type_0::SimdAdd                 6755      0.16%     80.51% # Type of FU issued
system.cpu.iq.FU_type_0::SimdAddAcc                 0      0.00%     80.51% # Type of FU issued
system.cpu.iq.FU_type_0::SimdAlu                14457      0.34%     80.86% # Type of FU issued
system.cpu.iq.FU_type_0::SimdCmp                    0      0.00%     80.86% # Type of FU issued
system.cpu.iq.FU_type_0::SimdCvt                13596      0.32%     81.18% # Type of FU issued
system.cpu.iq.FU_type_0::SimdMisc                7006      0.17%     81.34% # Type of FU issued
system.cpu.iq.FU_type_0::SimdMult                   0      0.00%     81.34% # Type of FU issued
system.cpu.iq.FU_type_0::SimdMultAcc                0      0.00%     81.34% # Type of FU issued
system.cpu.iq.FU_type_0::SimdShift               2012      0.05%     81.39% # Type of FU issued
system.cpu.iq.FU_type_0::SimdShiftAcc               0      0.00%     81.39% # Type of FU issued
system.cpu.iq.FU_type_0::SimdDiv                    0      0.00%     81.39% # Type of FU issued
system.cpu.iq.FU_type_0::SimdSqrt                   0      0.00%     81.39% # Type of FU issued
system.cpu.iq.FU_type_0::SimdFloatAdd               0      0.00%     81.39% # Type of FU issued
system.cpu.iq.FU_type_0::SimdFloatAlu               0      0.00%     81.39% # Type of FU issued
system.cpu.iq.FU_type_0::SimdFloatCmp               0      0.00%     81.39% # Type of FU issued
system.cpu.iq.FU_type_0::SimdFloatCvt               0      0.00%     81.39% # Type of FU issued
system.cpu.iq.FU_type_0::SimdFloatDiv               0      0.00%     81.39% # Type of FU issued
system.cpu.iq.FU_type_0::SimdFloatMisc              0      0.00%     81.39% # Type of FU issued
system.cpu.iq.FU_type_0::SimdFloatMult              0      0.00%     81.39% # Type of FU issued
system.cpu.iq.FU_type_0::SimdFloatMultAcc            0      0.00%     81.39% # Type of FU issued
system.cpu.iq.FU_type_0::SimdFloatSqrt              0      0.00%     81.39% # Type of FU issued
system.cpu.iq.FU_type_0::SimdReduceAdd              0      0.00%     81.39% # Type of FU issued
system.cpu.iq.FU_type_0::SimdReduceAlu              0      0.00%     81.39% # Type of FU issued
system.cpu.iq.FU_type_0::SimdReduceCmp              0      0.00%     81.39% # Type of FU issued
system.cpu.iq.FU_type_0::SimdFloatReduceAdd            0      0.00%     81.39% # Type of FU issued
system.cpu.iq.FU_type_0::SimdFloatReduceCmp            0      0.00%     81.39% # Type of FU issued
system.cpu.iq.FU_type_0::SimdAes                    0      0.00%     81.39% # Type of FU issued
system.cpu.iq.FU_type_0::SimdAesMix                 0      0.00%     81.39% # Type of FU issued
system.cpu.iq.FU_type_0::SimdSha1Hash               0      0.00%     81.39% # Type of FU issued
system.cpu.iq.FU_type_0::SimdSha1Hash2              0      0.00%     81.39% # Type of FU issued
system.cpu.iq.FU_type_0::SimdSha256Hash             0      0.00%     81.39% # Type of FU issued
system.cpu.iq.FU_type_0::SimdSha256Hash2            0      0.00%     81.39% # Type of FU issued
system.cpu.iq.FU_type_0::SimdShaSigma2              0      0.00%     81.39% # Type of FU issued
system.cpu.iq.FU_type_0::SimdShaSigma3              0      0.00%     81.39% # Type of FU issued
system.cpu.iq.FU_type_0::SimdPredAlu                0      0.00%     81.39% # Type of FU issued
system.cpu.iq.FU_type_0::MemRead               565887     13.39%     94.78% # Type of FU issued
system.cpu.iq.FU_type_0::MemWrite              182779      4.32%     99.11% # Type of FU issued
system.cpu.iq.FU_type_0::FloatMemRead           24392      0.58%     99.68% # Type of FU issued
system.cpu.iq.FU_type_0::FloatMemWrite          13402      0.32%    100.00% # Type of FU issued
system.cpu.iq.FU_type_0::IprAccess                  0      0.00%    100.00% # Type of FU issued
system.cpu.iq.FU_type_0::InstPrefetch               0      0.00%    100.00% # Type of FU issued
system.cpu.iq.FU_type_0::total                4226421                       # Type of FU issued
system.cpu.iq.fp_alu_accesses                   88055                       # Number of floating point alu accesses
system.cpu.iq.fp_inst_queue_reads              177336                       # Number of floating instruction queue reads
system.cpu.iq.fp_inst_queue_wakeup_accesses        84961                       # Number of floating instruction queue wakeup accesses
system.cpu.iq.fp_inst_queue_writes             125838                       # Number of floating instruction queue writes
system.cpu.iq.fu_busy_cnt                           0                       # FU busy when requested
system.cpu.iq.fu_busy_rate                          0                       # FU busy rate (busy events/executed inst)
system.cpu.iq.fu_full::No_OpClass                   0                       # attempts to use FU when none available
system.cpu.iq.fu_full::IntAlu                       0                       # attempts to use FU when none available
system.cpu.iq.fu_full::IntMult                      0                       # attempts to use FU when none available
system.cpu.iq.fu_full::IntDiv                       0                       # attempts to use FU when none available
system.cpu.iq.fu_full::FloatAdd                     0                       # attempts to use FU when none available
system.cpu.iq.fu_full::FloatCmp                     0                       # attempts to use FU when none available
system.cpu.iq.fu_full::FloatCvt                     0                       # attempts to use FU when none available
system.cpu.iq.fu_full::FloatMult                    0                       # attempts to use FU when none available
system.cpu.iq.fu_full::FloatMultAcc                 0                       # attempts to use FU when none available
system.cpu.iq.fu_full::FloatDiv                     0                       # attempts to use FU when none available
system.cpu.iq.fu_full::FloatMisc                    0                       # attempts to use FU when none available
system.cpu.iq.fu_full::FloatSqrt                    0                       # attempts to use FU when none available
system.cpu.iq.fu_full::SimdAdd                      0                       # attempts to use FU when none available
system.cpu.iq.fu_full::SimdAddAcc                   0                       # attempts to use FU when none available
system.cpu.iq.fu_full::SimdAlu                      0                       # attempts to use FU when none available
system.cpu.iq.fu_full::SimdCmp                      0                       # attempts to use FU when none available
system.cpu.iq.fu_full::SimdCvt                      0                       # attempts to use FU when none available
system.cpu.iq.fu_full::SimdMisc                     0                       # attempts to use FU when none available
system.cpu.iq.fu_full::SimdMult                     0                       # attempts to use FU when none available
system.cpu.iq.fu_full::SimdMultAcc                  0                       # attempts to use FU when none available
system.cpu.iq.fu_full::SimdShift                    0                       # attempts to use FU when none available
system.cpu.iq.fu_full::SimdShiftAcc                 0                       # attempts to use FU when none available
system.cpu.iq.fu_full::SimdDiv                      0                       # attempts to use FU when none available
system.cpu.iq.fu_full::SimdSqrt                     0                       # attempts to use FU when none available
system.cpu.iq.fu_full::SimdFloatAdd                 0                       # attempts to use FU when none available
system.cpu.iq.fu_full::SimdFloatAlu                 0                       # attempts to use FU when none available
system.cpu.iq.fu_full::SimdFloatCmp                 0                       # attempts to use FU when none available
system.cpu.iq.fu_full::SimdFloatCvt                 0                       # attempts to use FU when none available
system.cpu.iq.fu_full::SimdFloatDiv                 0                       # attempts to use FU when none available
system.cpu.iq.fu_full::SimdFloatMisc                0                       # attempts to use FU when none available
system.cpu.iq.fu_full::SimdFloatMult                0                       # attempts to use FU when none available
system.cpu.iq.fu_full::SimdFloatMultAcc             0                       # attempts to use FU when none available
system.cpu.iq.fu_full::SimdFloatSqrt                0                       # attempts to use FU when none available
system.cpu.iq.fu_full::SimdReduceAdd                0                       # attempts to use FU when none available
system.cpu.iq.fu_full::SimdReduceAlu                0                       # attempts to use FU when none available
system.cpu.iq.fu_full::SimdReduceCmp                0                       # attempts to use FU when none available
system.cpu.iq.fu_full::SimdFloatReduceAdd            0                       # attempts to use FU when none available
system.cpu.iq.fu_full::SimdFloatReduceCmp            0                       # attempts to use FU when none available
system.cpu.iq.fu_full::SimdAes                      0                       # attempts to use FU when none available
system.cpu.iq.fu_full::SimdAesMix                   0                       # attempts to use FU when none available
system.cpu.iq.fu_full::SimdSha1Hash                 0                       # attempts to use FU when none available
system.cpu.iq.fu_full::SimdSha1Hash2                0                       # attempts to use FU when none available
system.cpu.iq.fu_full::SimdSha256Hash               0                       # attempts to use FU when none available
system.cpu.iq.fu_full::SimdSha256Hash2              0                       # attempts to use FU when none available
system.cpu.iq.fu_full::SimdShaSigma2                0                       # attempts to use FU when none available
system.cpu.iq.fu_full::SimdShaSigma3                0                       # attempts to use FU when none available
system.cpu.iq.fu_full::SimdPredAlu                  0                       # attempts to use FU when none available
system.cpu.iq.fu_full::MemRead                      0                       # attempts to use FU when none available
system.cpu.iq.fu_full::MemWrite                     0                       # attempts to use FU when none available
system.cpu.iq.fu_full::FloatMemRead                 0                       # attempts to use FU when none available
system.cpu.iq.fu_full::FloatMemWrite                0                       # attempts to use FU when none available
system.cpu.iq.fu_full::IprAccess                    0                       # attempts to use FU when none available
system.cpu.iq.fu_full::InstPrefetch                 0                       # attempts to use FU when none available
system.cpu.iq.int_alu_accesses                4112395                       # Number of integer alu accesses
system.cpu.iq.int_inst_queue_reads           10896138                       # Number of integer instruction queue reads
system.cpu.iq.int_inst_queue_wakeup_accesses      4086300                       # Number of integer instruction queue wakeup accesses
system.cpu.iq.int_inst_queue_writes           5291670                       # Number of integer instruction queue writes
system.cpu.iq.iqInstsAdded                    4541065                       # Number of instructions added to the IQ (excludes non-spec)
system.cpu.iq.iqInstsIssued                   4226421                       # Number of instructions issued
system.cpu.iq.iqNonSpecInstsAdded                1038                       # Number of non-speculative instructions added to the IQ
system.cpu.iq.iqSquashedInstsExamined          875329                       # Number of squashed instructions iterated over during squash; mainly for profiling
system.cpu.iq.iqSquashedInstsIssued             18769                       # Number of squashed instructions issued
system.cpu.iq.iqSquashedNonSpecRemoved            306                       # Number of squashed non-spec instructions that were removed
system.cpu.iq.iqSquashedOperandsExamined      1299181                       # Number of squashed operands that are examined and possibly removed from graph
system.cpu.iq.issued_per_cycle::samples       2601866                       # Number of insts issued each cycle
system.cpu.iq.issued_per_cycle::mean         1.624381                       # Number of insts issued each cycle
system.cpu.iq.issued_per_cycle::stdev        1.666095                       # Number of insts issued each cycle
system.cpu.iq.issued_per_cycle::underflows            0      0.00%      0.00% # Number of insts issued each cycle
system.cpu.iq.issued_per_cycle::0             1168101     44.89%     44.89% # Number of insts issued each cycle
system.cpu.iq.issued_per_cycle::1              182247      7.00%     51.90% # Number of insts issued each cycle
system.cpu.iq.issued_per_cycle::2              307256     11.81%     63.71% # Number of insts issued each cycle
system.cpu.iq.issued_per_cycle::3              347386     13.35%     77.06% # Number of insts issued each cycle
system.cpu.iq.issued_per_cycle::4              596876     22.94%    100.00% # Number of insts issued each cycle
system.cpu.iq.issued_per_cycle::overflows            0      0.00%    100.00% # Number of insts issued each cycle
system.cpu.iq.issued_per_cycle::min_value            0                       # Number of insts issued each cycle
system.cpu.iq.issued_per_cycle::max_value            4                       # Number of insts issued each cycle
system.cpu.iq.issued_per_cycle::total         2601866                       # Number of insts issued each cycle
system.cpu.iq.rate                           1.535552                       # Inst issue rate
system.cpu.iq.vec_alu_accesses                      0                       # Number of vector alu accesses
system.cpu.iq.vec_inst_queue_reads                  0                       # Number of vector instruction queue reads
system.cpu.iq.vec_inst_queue_wakeup_accesses            0                       # Number of vector instruction queue wakeup accesses
system.cpu.iq.vec_inst_queue_writes                 0                       # Number of vector instruction queue writes
system.cpu.itb.rdAccesses                           0                       # TLB accesses on read requests
system.cpu.itb.rdMisses                             0                       # TLB misses on read requests
system.cpu.itb.wrAccesses                      249401                       # TLB accesses on write requests
system.cpu.itb.wrMisses                           312                       # TLB misses on write requests
system.cpu.memDep0.conflictingLoads             12179                       # Number of conflicting loads.
system.cpu.memDep0.conflictingStores             5768                       # Number of conflicting stores.
system.cpu.memDep0.insertedLoads               610569                       # Number of loads inserted to the mem dependence unit.
system.cpu.memDep0.insertedStores              203755                       # Number of stores inserted to the mem dependence unit.
system.cpu.misc_regfile_reads                 1572007                       # number of misc regfile reads
system.cpu.misc_regfile_writes                    675                       # number of misc regfile writes
system.cpu.numCycles                          2752379                       # number of cpu cycles simulated
system.cpu.numWorkItemsCompleted                    0                       # number of work items this cpu completed
system.cpu.numWorkItemsStarted                      0                       # number of work items this cpu started
system.cpu.process.numSyscalls                     56                       # Number of system calls
system.cpu.rename.BlockCycles                  840311                       # Number of cycles rename is blocking
system.cpu.rename.CommittedMaps               5044144                       # Number of HB maps that are committed
system.cpu.rename.FullRegisterEvents               47                       # Number of times there has been no free registers
system.cpu.rename.IQFullEvents                  49778                       # Number of times rename has blocked due to IQ full
system.cpu.rename.IdleCycles                   349179                       # Number of cycles rename is idle
system.cpu.rename.LQFullEvents                  15884                       # Number of times rename has blocked due to LQ full
system.cpu.rename.ROBFullEvents                  4644                       # Number of times rename has blocked due to ROB full
system.cpu.rename.RenameLookups              12194789                       # Number of register rename lookups that rename has made
system.cpu.rename.RenamedInsts                4680718                       # Number of instructions processed by rename
system.cpu.rename.RenamedOperands             6421946                       # Number of destination operands rename has renamed
system.cpu.rename.RunCycles                   1185634                       # Number of cycles rename is running
system.cpu.rename.SQFullEvents                  79850                       # Number of times rename has blocked due to SQ full
system.cpu.rename.SquashCycles                  23878                       # Number of cycles rename is squashing
system.cpu.rename.UnblockCycles                183318                       # Number of cycles rename is unblocking
system.cpu.rename.UndoneMaps                  1377779                       # Number of HB maps that are undone due to squashing
system.cpu.rename.fp_rename_lookups            149446                       # Number of floating rename lookups
system.cpu.rename.int_rename_lookups          7434407                       # Number of integer rename lookups
system.cpu.rename.serializeStallCycles          19546                       # count of cycles rename stalled for serializing inst
system.cpu.rename.serializingInsts                874                       # count of serializing insts renamed
system.cpu.rename.skidInsts                    214864                       # count of insts added to the skid buffer
system.cpu.rename.tempSerializingInsts            927                       # count of temporary serializing insts renamed
system.cpu.rob.rob_reads                      6295936                       # The number of ROB reads
system.cpu.rob.rob_writes                     9324164                       # The number of ROB writes
system.cpu.timesIdled                            1482                       # Number of times that the entire CPU went into an idle state and unscheduled itself
system.l2bus.snoop_filter.hit_multi_requests            9                       # Number of requests hitting in the snoop filter with multiple (>1) holders of the requested data.
system.l2bus.snoop_filter.hit_multi_snoops            0                       # Number of snoops hitting in the snoop filter with multiple (>1) holders of the requested data.
system.l2bus.snoop_filter.hit_single_requests        18249                       # Number of requests hitting in the snoop filter with a single holder of the requested data.
system.l2bus.snoop_filter.hit_single_snoops          426                       # Number of snoops hitting in the snoop filter with a single holder of the requested data.
system.l2bus.snoop_filter.tot_requests          37776                       # Total number of requests made to the snoop filter.
system.l2bus.snoop_filter.tot_snoops              426                       # Total number of snoops made to the snoop filter.
system.l2cache.prefetcher.num_hwpf_issued          675                       # number of hwpf issued
system.l2cache.prefetcher.pfBufferHit               0                       # number of redundant prefetches already in prefetch queue
system.l2cache.prefetcher.pfIdentified            675                       # number of prefetch candidates identified
system.l2cache.prefetcher.pfInCache                 0                       # number of redundant prefetches already in cache/mshr dropped
system.l2cache.prefetcher.pfRemovedFull             0                       # number of prefetches dropped due to prefetch queue size
system.l2cache.prefetcher.pfSpanPage              101                       # number of prefetches that crossed the page
system.membus.snoop_filter.hit_multi_requests            0                       # Number of requests hitting in the snoop filter with multiple (>1) holders of the requested data.
system.membus.snoop_filter.hit_multi_snoops            0                       # Number of snoops hitting in the snoop filter with multiple (>1) holders of the requested data.
system.membus.snoop_filter.hit_single_requests         9293                       # Number of requests hitting in the snoop filter with a single holder of the requested data.
system.membus.snoop_filter.hit_single_snoops            0                       # Number of snoops hitting in the snoop filter with a single holder of the requested data.
system.membus.snoop_filter.tot_requests         22706                       # Total number of requests made to the snoop filter.
system.membus.snoop_filter.tot_snoops               0                       # Total number of snoops made to the snoop filter.
system.membus.pwrStateResidencyTicks::UNDEFINED   1100951200                       # Cumulative time (in ticks) in various power states
system.membus.trans_dist::ReadResp              12043                       # Transaction distribution
system.membus.trans_dist::WritebackDirty         1314                       # Transaction distribution
system.membus.trans_dist::CleanEvict             7979                       # Transaction distribution
system.membus.trans_dist::ReadExReq              1370                       # Transaction distribution
system.membus.trans_dist::ReadExResp             1370                       # Transaction distribution
system.membus.trans_dist::ReadSharedReq         12043                       # Transaction distribution
system.membus.pkt_count_system.l2cache.mem_side::system.mem_ctrl.port        36119                       # Packet count per connected master and slave (bytes)
system.membus.pkt_count_system.l2cache.mem_side::total        36119                       # Packet count per connected master and slave (bytes)
system.membus.pkt_count::total                  36119                       # Packet count per connected master and slave (bytes)
system.membus.pkt_size_system.l2cache.mem_side::system.mem_ctrl.port       942528                       # Cumulative packet size per connected master and slave (bytes)
system.membus.pkt_size_system.l2cache.mem_side::total       942528                       # Cumulative packet size per connected master and slave (bytes)
system.membus.pkt_size::total                  942528                       # Cumulative packet size per connected master and slave (bytes)
system.membus.snoops                                0                       # Total snoops (count)
system.membus.snoopTraffic                          0                       # Total snoop traffic (bytes)
system.membus.snoop_fanout::samples             13413                       # Request fanout histogram
system.membus.snoop_fanout::mean                    0                       # Request fanout histogram
system.membus.snoop_fanout::stdev                   0                       # Request fanout histogram
system.membus.snoop_fanout::underflows              0      0.00%      0.00% # Request fanout histogram
system.membus.snoop_fanout::0                   13413    100.00%    100.00% # Request fanout histogram
system.membus.snoop_fanout::1                       0      0.00%    100.00% # Request fanout histogram
system.membus.snoop_fanout::overflows               0      0.00%    100.00% # Request fanout histogram
system.membus.snoop_fanout::min_value               0                       # Request fanout histogram
system.membus.snoop_fanout::max_value               0                       # Request fanout histogram
system.membus.snoop_fanout::total               13413                       # Request fanout histogram
system.membus.reqLayer2.occupancy            11211459                       # Layer occupancy (ticks)
system.membus.reqLayer2.utilization               1.0                       # Layer utilization (%)
system.membus.respLayer0.occupancy           29106441                       # Layer occupancy (ticks)
system.membus.respLayer0.utilization              2.6                       # Layer utilization (%)
system.l2bus.pwrStateResidencyTicks::UNDEFINED   1100951200                       # Cumulative time (in ticks) in various power states
system.l2bus.trans_dist::ReadResp               17419                       # Transaction distribution
system.l2bus.trans_dist::WritebackDirty          4122                       # Transaction distribution
system.l2bus.trans_dist::CleanEvict             23507                       # Transaction distribution
system.l2bus.trans_dist::HardPFReq                947                       # Transaction distribution
system.l2bus.trans_dist::ReadExReq               2109                       # Transaction distribution
system.l2bus.trans_dist::ReadExResp              2109                       # Transaction distribution
system.l2bus.trans_dist::ReadSharedReq          17419                       # Transaction distribution
system.l2bus.pkt_count_system.cpu.icache.mem_side::system.l2cache.cpu_side         7539                       # Packet count per connected master and slave (bytes)
system.l2bus.pkt_count_system.cpu.dcache.mem_side::system.l2cache.cpu_side        49763                       # Packet count per connected master and slave (bytes)
system.l2bus.pkt_count::total                   57302                       # Packet count per connected master and slave (bytes)
system.l2bus.pkt_size_system.cpu.icache.mem_side::system.l2cache.cpu_side       166208                       # Cumulative packet size per connected master and slave (bytes)
system.l2bus.pkt_size_system.cpu.dcache.mem_side::system.l2cache.cpu_side      1263168                       # Cumulative packet size per connected master and slave (bytes)
system.l2bus.pkt_size::total                  1429376                       # Cumulative packet size per connected master and slave (bytes)
system.l2bus.snoops                             10330                       # Total snoops (count)
system.l2bus.snoopTraffic                       84224                       # Total snoop traffic (bytes)
system.l2bus.snoop_fanout::samples              29856                       # Request fanout histogram
system.l2bus.snoop_fanout::mean              0.014603                       # Request fanout histogram
system.l2bus.snoop_fanout::stdev             0.119961                       # Request fanout histogram
system.l2bus.snoop_fanout::underflows               0      0.00%      0.00% # Request fanout histogram
system.l2bus.snoop_fanout::0                    29420     98.54%     98.54% # Request fanout histogram
system.l2bus.snoop_fanout::1                      436      1.46%    100.00% # Request fanout histogram
system.l2bus.snoop_fanout::2                        0      0.00%    100.00% # Request fanout histogram
system.l2bus.snoop_fanout::overflows                0      0.00%    100.00% # Request fanout histogram
system.l2bus.snoop_fanout::min_value                0                       # Request fanout histogram
system.l2bus.snoop_fanout::max_value                1                       # Request fanout histogram
system.l2bus.snoop_fanout::total                29856                       # Request fanout histogram
system.l2bus.respLayer1.occupancy            20314800                       # Layer occupancy (ticks)
system.l2bus.respLayer1.utilization               1.8                       # Layer utilization (%)
system.l2bus.reqLayer0.occupancy             18816080                       # Layer occupancy (ticks)
system.l2bus.reqLayer0.utilization                1.7                       # Layer utilization (%)
system.l2bus.respLayer0.occupancy             3119199                       # Layer occupancy (ticks)
system.l2bus.respLayer0.utilization               0.3                       # Layer utilization (%)
system.clk_domain.clock                           400                       # Clock period in ticks
system.clk_domain.voltage_domain.voltage            1                       # Voltage in Volts
system.cpu.pwrStateResidencyTicks::ON      1100951200                       # Cumulative time (in ticks) in various power states
system.cpu.icache.pwrStateResidencyTicks::UNDEFINED   1100951200                       # Cumulative time (in ticks) in various power states
system.cpu.icache.demand_hits::.cpu.inst       246043                       # number of demand (read+write) hits
system.cpu.icache.demand_hits::total           246043                       # number of demand (read+write) hits
system.cpu.icache.overall_hits::.cpu.inst       246043                       # number of overall hits
system.cpu.icache.overall_hits::total          246043                       # number of overall hits
system.cpu.icache.demand_misses::.cpu.inst         3285                       # number of demand (read+write) misses
system.cpu.icache.demand_misses::total           3285                       # number of demand (read+write) misses
system.cpu.icache.overall_misses::.cpu.inst         3285                       # number of overall misses
system.cpu.icache.overall_misses::total          3285                       # number of overall misses
system.cpu.icache.demand_miss_latency::.cpu.inst    165820400                       # number of demand (read+write) miss cycles
system.cpu.icache.demand_miss_latency::total    165820400                       # number of demand (read+write) miss cycles
system.cpu.icache.overall_miss_latency::.cpu.inst    165820400                       # number of overall miss cycles
system.cpu.icache.overall_miss_latency::total    165820400                       # number of overall miss cycles
system.cpu.icache.demand_accesses::.cpu.inst       249328                       # number of demand (read+write) accesses
system.cpu.icache.demand_accesses::total       249328                       # number of demand (read+write) accesses
system.cpu.icache.overall_accesses::.cpu.inst       249328                       # number of overall (read+write) accesses
system.cpu.icache.overall_accesses::total       249328                       # number of overall (read+write) accesses
system.cpu.icache.demand_miss_rate::.cpu.inst     0.013175                       # miss rate for demand accesses
system.cpu.icache.demand_miss_rate::total     0.013175                       # miss rate for demand accesses
system.cpu.icache.overall_miss_rate::.cpu.inst     0.013175                       # miss rate for overall accesses
system.cpu.icache.overall_miss_rate::total     0.013175                       # miss rate for overall accesses
system.cpu.icache.demand_avg_miss_latency::.cpu.inst 50478.051750                       # average overall miss latency
system.cpu.icache.demand_avg_miss_latency::total 50478.051750                       # average overall miss latency
system.cpu.icache.overall_avg_miss_latency::.cpu.inst 50478.051750                       # average overall miss latency
system.cpu.icache.overall_avg_miss_latency::total 50478.051750                       # average overall miss latency
system.cpu.icache.blocked_cycles::no_mshrs           39                       # number of cycles access was blocked
system.cpu.icache.blocked_cycles::no_targets            0                       # number of cycles access was blocked
system.cpu.icache.blocked::no_mshrs                 2                       # number of cycles access was blocked
system.cpu.icache.blocked::no_targets               0                       # number of cycles access was blocked
system.cpu.icache.avg_blocked_cycles::no_mshrs    19.500000                       # average number of cycles each access was blocked
system.cpu.icache.avg_blocked_cycles::no_targets          nan                       # average number of cycles each access was blocked
system.cpu.icache.demand_mshr_hits::.cpu.inst          686                       # number of demand (read+write) MSHR hits
system.cpu.icache.demand_mshr_hits::total          686                       # number of demand (read+write) MSHR hits
system.cpu.icache.overall_mshr_hits::.cpu.inst          686                       # number of overall MSHR hits
system.cpu.icache.overall_mshr_hits::total          686                       # number of overall MSHR hits
system.cpu.icache.demand_mshr_misses::.cpu.inst         2599                       # number of demand (read+write) MSHR misses
system.cpu.icache.demand_mshr_misses::total         2599                       # number of demand (read+write) MSHR misses
system.cpu.icache.overall_mshr_misses::.cpu.inst         2599                       # number of overall MSHR misses
system.cpu.icache.overall_mshr_misses::total         2599                       # number of overall MSHR misses
system.cpu.icache.demand_mshr_miss_latency::.cpu.inst    132571600                       # number of demand (read+write) MSHR miss cycles
system.cpu.icache.demand_mshr_miss_latency::total    132571600                       # number of demand (read+write) MSHR miss cycles
system.cpu.icache.overall_mshr_miss_latency::.cpu.inst    132571600                       # number of overall MSHR miss cycles
system.cpu.icache.overall_mshr_miss_latency::total    132571600                       # number of overall MSHR miss cycles
system.cpu.icache.demand_mshr_miss_rate::.cpu.inst     0.010424                       # mshr miss rate for demand accesses
system.cpu.icache.demand_mshr_miss_rate::total     0.010424                       # mshr miss rate for demand accesses
system.cpu.icache.overall_mshr_miss_rate::.cpu.inst     0.010424                       # mshr miss rate for overall accesses
system.cpu.icache.overall_mshr_miss_rate::total     0.010424                       # mshr miss rate for overall accesses
system.cpu.icache.demand_avg_mshr_miss_latency::.cpu.inst 51008.695652                       # average overall mshr miss latency
system.cpu.icache.demand_avg_mshr_miss_latency::total 51008.695652                       # average overall mshr miss latency
system.cpu.icache.overall_avg_mshr_miss_latency::.cpu.inst 51008.695652                       # average overall mshr miss latency
system.cpu.icache.overall_avg_mshr_miss_latency::total 51008.695652                       # average overall mshr miss latency
system.cpu.icache.replacements                   2343                       # number of replacements
system.cpu.icache.ReadReq_hits::.cpu.inst       246043                       # number of ReadReq hits
system.cpu.icache.ReadReq_hits::total          246043                       # number of ReadReq hits
system.cpu.icache.ReadReq_misses::.cpu.inst         3285                       # number of ReadReq misses
system.cpu.icache.ReadReq_misses::total          3285                       # number of ReadReq misses
system.cpu.icache.ReadReq_miss_latency::.cpu.inst    165820400                       # number of ReadReq miss cycles
system.cpu.icache.ReadReq_miss_latency::total    165820400                       # number of ReadReq miss cycles
system.cpu.icache.ReadReq_accesses::.cpu.inst       249328                       # number of ReadReq accesses(hits+misses)
system.cpu.icache.ReadReq_accesses::total       249328                       # number of ReadReq accesses(hits+misses)
system.cpu.icache.ReadReq_miss_rate::.cpu.inst     0.013175                       # miss rate for ReadReq accesses
system.cpu.icache.ReadReq_miss_rate::total     0.013175                       # miss rate for ReadReq accesses
system.cpu.icache.ReadReq_avg_miss_latency::.cpu.inst 50478.051750                       # average ReadReq miss latency
system.cpu.icache.ReadReq_avg_miss_latency::total 50478.051750                       # average ReadReq miss latency
system.cpu.icache.ReadReq_mshr_hits::.cpu.inst          686                       # number of ReadReq MSHR hits
system.cpu.icache.ReadReq_mshr_hits::total          686                       # number of ReadReq MSHR hits
system.cpu.icache.ReadReq_mshr_misses::.cpu.inst         2599                       # number of ReadReq MSHR misses
system.cpu.icache.ReadReq_mshr_misses::total         2599                       # number of ReadReq MSHR misses
system.cpu.icache.ReadReq_mshr_miss_latency::.cpu.inst    132571600                       # number of ReadReq MSHR miss cycles
system.cpu.icache.ReadReq_mshr_miss_latency::total    132571600                       # number of ReadReq MSHR miss cycles
system.cpu.icache.ReadReq_mshr_miss_rate::.cpu.inst     0.010424                       # mshr miss rate for ReadReq accesses
system.cpu.icache.ReadReq_mshr_miss_rate::total     0.010424                       # mshr miss rate for ReadReq accesses
system.cpu.icache.ReadReq_avg_mshr_miss_latency::.cpu.inst 51008.695652                       # average ReadReq mshr miss latency
system.cpu.icache.ReadReq_avg_mshr_miss_latency::total 51008.695652                       # average ReadReq mshr miss latency
system.cpu.icache.prefetcher.pwrStateResidencyTicks::UNDEFINED   1100951200                       # Cumulative time (in ticks) in various power states
system.cpu.icache.tags.pwrStateResidencyTicks::UNDEFINED   1100951200                       # Cumulative time (in ticks) in various power states
system.cpu.icache.tags.tagsinuse           253.498658                       # Cycle average of tags in use
system.cpu.icache.tags.total_refs              208251                       # Total number of references to valid blocks.
system.cpu.icache.tags.sampled_refs              2343                       # Sample count of references to valid blocks.
system.cpu.icache.tags.avg_refs             88.882202                       # Average number of references to valid blocks.
system.cpu.icache.tags.warmup_cycle             66400                       # Cycle when the warmup percentage was hit.
system.cpu.icache.tags.occ_blocks::.cpu.inst   253.498658                       # Average occupied blocks per requestor
system.cpu.icache.tags.occ_percent::.cpu.inst     0.990229                       # Average percentage of cache occupancy
system.cpu.icache.tags.occ_percent::total     0.990229                       # Average percentage of cache occupancy
system.cpu.icache.tags.occ_task_id_blocks::1024          256                       # Occupied blocks per task id
system.cpu.icache.tags.age_task_id_blocks_1024::0           76                       # Occupied blocks per task id
system.cpu.icache.tags.age_task_id_blocks_1024::1          141                       # Occupied blocks per task id
system.cpu.icache.tags.age_task_id_blocks_1024::2           34                       # Occupied blocks per task id
system.cpu.icache.tags.age_task_id_blocks_1024::3            5                       # Occupied blocks per task id
system.cpu.icache.tags.occ_task_id_percent::1024            1                       # Percentage of cache occupancy per task id
system.cpu.icache.tags.tag_accesses            501255                       # Number of tag accesses
system.cpu.icache.tags.data_accesses           501255                       # Number of data accesses
system.cpu.dtb.walker.pwrStateResidencyTicks::UNDEFINED   1100951200                       # Cumulative time (in ticks) in various power states
system.cpu.interrupts.clk_domain.clock           6400                       # Clock period in ticks
system.cpu.itb.walker.pwrStateResidencyTicks::UNDEFINED   1100951200                       # Cumulative time (in ticks) in various power states
system.cpu.dcache.pwrStateResidencyTicks::UNDEFINED   1100951200                       # Cumulative time (in ticks) in various power states
system.cpu.dcache.demand_hits::.cpu.data       677078                       # number of demand (read+write) hits
system.cpu.dcache.demand_hits::total           677078                       # number of demand (read+write) hits
system.cpu.dcache.overall_hits::.cpu.data       677078                       # number of overall hits
system.cpu.dcache.overall_hits::total          677078                       # number of overall hits
system.cpu.dcache.demand_misses::.cpu.data        34430                       # number of demand (read+write) misses
system.cpu.dcache.demand_misses::total          34430                       # number of demand (read+write) misses
system.cpu.dcache.overall_misses::.cpu.data        34430                       # number of overall misses
system.cpu.dcache.overall_misses::total         34430                       # number of overall misses
system.cpu.dcache.demand_miss_latency::.cpu.data   1678780400                       # number of demand (read+write) miss cycles
system.cpu.dcache.demand_miss_latency::total   1678780400                       # number of demand (read+write) miss cycles
system.cpu.dcache.overall_miss_latency::.cpu.data   1678780400                       # number of overall miss cycles
system.cpu.dcache.overall_miss_latency::total   1678780400                       # number of overall miss cycles
system.cpu.dcache.demand_accesses::.cpu.data       711508                       # number of demand (read+write) accesses
system.cpu.dcache.demand_accesses::total       711508                       # number of demand (read+write) accesses
system.cpu.dcache.overall_accesses::.cpu.data       711508                       # number of overall (read+write) accesses
system.cpu.dcache.overall_accesses::total       711508                       # number of overall (read+write) accesses
system.cpu.dcache.demand_miss_rate::.cpu.data     0.048390                       # miss rate for demand accesses
system.cpu.dcache.demand_miss_rate::total     0.048390                       # miss rate for demand accesses
system.cpu.dcache.overall_miss_rate::.cpu.data     0.048390                       # miss rate for overall accesses
system.cpu.dcache.overall_miss_rate::total     0.048390                       # miss rate for overall accesses
system.cpu.dcache.demand_avg_miss_latency::.cpu.data 48759.233227                       # average overall miss latency
system.cpu.dcache.demand_avg_miss_latency::total 48759.233227                       # average overall miss latency
system.cpu.dcache.overall_avg_miss_latency::.cpu.data 48759.233227                       # average overall miss latency
system.cpu.dcache.overall_avg_miss_latency::total 48759.233227                       # average overall miss latency
system.cpu.dcache.blocked_cycles::no_mshrs        29343                       # number of cycles access was blocked
system.cpu.dcache.blocked_cycles::no_targets          138                       # number of cycles access was blocked
system.cpu.dcache.blocked::no_mshrs               732                       # number of cycles access was blocked
system.cpu.dcache.blocked::no_targets               1                       # number of cycles access was blocked
system.cpu.dcache.avg_blocked_cycles::no_mshrs    40.086066                       # average number of cycles each access was blocked
system.cpu.dcache.avg_blocked_cycles::no_targets          138                       # average number of cycles each access was blocked
system.cpu.dcache.unused_prefetches              1776                       # number of HardPF blocks evicted w/o reference
system.cpu.dcache.writebacks::.writebacks         2808                       # number of writebacks
system.cpu.dcache.writebacks::total              2808                       # number of writebacks
system.cpu.dcache.demand_mshr_hits::.cpu.data        21977                       # number of demand (read+write) MSHR hits
system.cpu.dcache.demand_mshr_hits::total        21977                       # number of demand (read+write) MSHR hits
system.cpu.dcache.overall_mshr_hits::.cpu.data        21977                       # number of overall MSHR hits
system.cpu.dcache.overall_mshr_hits::total        21977                       # number of overall MSHR hits
system.cpu.dcache.demand_mshr_misses::.cpu.data        12453                       # number of demand (read+write) MSHR misses
system.cpu.dcache.demand_mshr_misses::total        12453                       # number of demand (read+write) MSHR misses
system.cpu.dcache.overall_mshr_misses::.cpu.data        12453                       # number of overall MSHR misses
system.cpu.dcache.overall_mshr_misses::.cpu.dcache.prefetcher         4476                       # number of overall MSHR misses
system.cpu.dcache.overall_mshr_misses::total        16929                       # number of overall MSHR misses
system.cpu.dcache.demand_mshr_miss_latency::.cpu.data    575884800                       # number of demand (read+write) MSHR miss cycles
system.cpu.dcache.demand_mshr_miss_latency::total    575884800                       # number of demand (read+write) MSHR miss cycles
system.cpu.dcache.overall_mshr_miss_latency::.cpu.data    575884800                       # number of overall MSHR miss cycles
system.cpu.dcache.overall_mshr_miss_latency::.cpu.dcache.prefetcher    251409130                       # number of overall MSHR miss cycles
system.cpu.dcache.overall_mshr_miss_latency::total    827293930                       # number of overall MSHR miss cycles
system.cpu.dcache.demand_mshr_miss_rate::.cpu.data     0.017502                       # mshr miss rate for demand accesses
system.cpu.dcache.demand_mshr_miss_rate::total     0.017502                       # mshr miss rate for demand accesses
system.cpu.dcache.overall_mshr_miss_rate::.cpu.data     0.017502                       # mshr miss rate for overall accesses
system.cpu.dcache.overall_mshr_miss_rate::.cpu.dcache.prefetcher          inf                       # mshr miss rate for overall accesses
system.cpu.dcache.overall_mshr_miss_rate::total     0.023793                       # mshr miss rate for overall accesses
system.cpu.dcache.demand_avg_mshr_miss_latency::.cpu.data 46244.663936                       # average overall mshr miss latency
system.cpu.dcache.demand_avg_mshr_miss_latency::total 46244.663936                       # average overall mshr miss latency
system.cpu.dcache.overall_avg_mshr_miss_latency::.cpu.data 46244.663936                       # average overall mshr miss latency
system.cpu.dcache.overall_avg_mshr_miss_latency::.cpu.dcache.prefetcher 56168.259607                       # average overall mshr miss latency
system.cpu.dcache.overall_avg_mshr_miss_latency::total 48868.446453                       # average overall mshr miss latency
system.cpu.dcache.replacements                  15905                       # number of replacements
system.cpu.dcache.ReadReq_hits::.cpu.data       504547                       # number of ReadReq hits
system.cpu.dcache.ReadReq_hits::total          504547                       # number of ReadReq hits
system.cpu.dcache.ReadReq_misses::.cpu.data        32281                       # number of ReadReq misses
system.cpu.dcache.ReadReq_misses::total         32281                       # number of ReadReq misses
system.cpu.dcache.ReadReq_miss_latency::.cpu.data   1571364800                       # number of ReadReq miss cycles
system.cpu.dcache.ReadReq_miss_latency::total   1571364800                       # number of ReadReq miss cycles
system.cpu.dcache.ReadReq_accesses::.cpu.data       536828                       # number of ReadReq accesses(hits+misses)
system.cpu.dcache.ReadReq_accesses::total       536828                       # number of ReadReq accesses(hits+misses)
system.cpu.dcache.ReadReq_miss_rate::.cpu.data     0.060133                       # miss rate for ReadReq accesses
system.cpu.dcache.ReadReq_miss_rate::total     0.060133                       # miss rate for ReadReq accesses
system.cpu.dcache.ReadReq_avg_miss_latency::.cpu.data 48677.698956                       # average ReadReq miss latency
system.cpu.dcache.ReadReq_avg_miss_latency::total 48677.698956                       # average ReadReq miss latency
system.cpu.dcache.ReadReq_mshr_hits::.cpu.data        21937                       # number of ReadReq MSHR hits
system.cpu.dcache.ReadReq_mshr_hits::total        21937                       # number of ReadReq MSHR hits
system.cpu.dcache.ReadReq_mshr_misses::.cpu.data        10344                       # number of ReadReq MSHR misses
system.cpu.dcache.ReadReq_mshr_misses::total        10344                       # number of ReadReq MSHR misses
system.cpu.dcache.ReadReq_mshr_miss_latency::.cpu.data    472032800                       # number of ReadReq MSHR miss cycles
system.cpu.dcache.ReadReq_mshr_miss_latency::total    472032800                       # number of ReadReq MSHR miss cycles
system.cpu.dcache.ReadReq_mshr_miss_rate::.cpu.data     0.019269                       # mshr miss rate for ReadReq accesses
system.cpu.dcache.ReadReq_mshr_miss_rate::total     0.019269                       # mshr miss rate for ReadReq accesses
system.cpu.dcache.ReadReq_avg_mshr_miss_latency::.cpu.data 45633.488012                       # average ReadReq mshr miss latency
system.cpu.dcache.ReadReq_avg_mshr_miss_latency::total 45633.488012                       # average ReadReq mshr miss latency
system.cpu.dcache.WriteReq_hits::.cpu.data       172531                       # number of WriteReq hits
system.cpu.dcache.WriteReq_hits::total         172531                       # number of WriteReq hits
system.cpu.dcache.WriteReq_misses::.cpu.data         2149                       # number of WriteReq misses
system.cpu.dcache.WriteReq_misses::total         2149                       # number of WriteReq misses
system.cpu.dcache.WriteReq_miss_latency::.cpu.data    107415600                       # number of WriteReq miss cycles
system.cpu.dcache.WriteReq_miss_latency::total    107415600                       # number of WriteReq miss cycles
system.cpu.dcache.WriteReq_accesses::.cpu.data       174680                       # number of WriteReq accesses(hits+misses)
system.cpu.dcache.WriteReq_accesses::total       174680                       # number of WriteReq accesses(hits+misses)
system.cpu.dcache.WriteReq_miss_rate::.cpu.data     0.012302                       # miss rate for WriteReq accesses
system.cpu.dcache.WriteReq_miss_rate::total     0.012302                       # miss rate for WriteReq accesses
system.cpu.dcache.WriteReq_avg_miss_latency::.cpu.data 49983.992555                       # average WriteReq miss latency
system.cpu.dcache.WriteReq_avg_miss_latency::total 49983.992555                       # average WriteReq miss latency
system.cpu.dcache.WriteReq_mshr_hits::.cpu.data           40                       # number of WriteReq MSHR hits
system.cpu.dcache.WriteReq_mshr_hits::total           40                       # number of WriteReq MSHR hits
system.cpu.dcache.WriteReq_mshr_misses::.cpu.data         2109                       # number of WriteReq MSHR misses
system.cpu.dcache.WriteReq_mshr_misses::total         2109                       # number of WriteReq MSHR misses
system.cpu.dcache.WriteReq_mshr_miss_latency::.cpu.data    103852000                       # number of WriteReq MSHR miss cycles
[...]
system.l2cache.overall_mshr_miss_rate::.cpu.data     0.528090                       # mshr miss rate for overall accesses
system.l2cache.overall_mshr_miss_rate::.cpu.dcache.prefetcher     0.648148                       # mshr miss rate for overall accesses
system.l2cache.overall_mshr_miss_rate::.l2cache.prefetcher          inf                       # mshr miss rate for overall accesses
system.l2cache.overall_mshr_miss_rate::total     0.512268                       # mshr miss rate for overall accesses
system.l2cache.demand_avg_mshr_miss_latency::.cpu.inst        60698                       # average overall mshr miss latency
system.l2cache.demand_avg_mshr_miss_latency::.cpu.data 58566.808511                       # average overall mshr miss latency
system.l2cache.demand_avg_mshr_miss_latency::.cpu.dcache.prefetcher        59702                       # average overall mshr miss latency
system.l2cache.demand_avg_mshr_miss_latency::total 59898.462687                       # average overall mshr miss latency
system.l2cache.overall_avg_mshr_miss_latency::.cpu.inst        60698                       # average overall mshr miss latency
system.l2cache.overall_avg_mshr_miss_latency::.cpu.data 58566.808511                       # average overall mshr miss latency
system.l2cache.overall_avg_mshr_miss_latency::.cpu.dcache.prefetcher        59702                       # average overall mshr miss latency
system.l2cache.overall_avg_mshr_miss_latency::.l2cache.prefetcher 60462.105263                       # average overall mshr miss latency
system.l2cache.overall_avg_mshr_miss_latency::total 59914.005806                       # average overall mshr miss latency
system.l2cache.replacements                       702                       # number of replacements
system.l2cache.WritebackDirty_hits::.writebacks          187                       # number of WritebackDirty hits
system.l2cache.WritebackDirty_hits::total          187                       # number of WritebackDirty hits
system.l2cache.WritebackDirty_accesses::.writebacks          187                       # number of WritebackDirty accesses(hits+misses)
system.l2cache.WritebackDirty_accesses::total          187                       # number of WritebackDirty accesses(hits+misses)
system.l2cache.CleanEvict_mshr_misses::.writebacks           14                       # number of CleanEvict MSHR misses
system.l2cache.CleanEvict_mshr_misses::total           14                       # number of CleanEvict MSHR misses
system.l2cache.CleanEvict_mshr_miss_rate::.writebacks          inf                       # mshr miss rate for CleanEvict accesses
system.l2cache.CleanEvict_mshr_miss_rate::total          inf                       # mshr miss rate for CleanEvict accesses
system.l2cache.HardPFReq_mshr_misses::.l2cache.prefetcher           19                       # number of HardPFReq MSHR misses
system.l2cache.HardPFReq_mshr_misses::total           19                       # number of HardPFReq MSHR misses
system.l2cache.HardPFReq_mshr_miss_latency::.l2cache.prefetcher      1148780                       # number of HardPFReq MSHR miss cycles
system.l2cache.HardPFReq_mshr_miss_latency::total      1148780                       # number of HardPFReq MSHR miss cycles
system.l2cache.HardPFReq_mshr_miss_rate::.l2cache.prefetcher          inf                       # mshr miss rate for HardPFReq accesses
system.l2cache.HardPFReq_mshr_miss_rate::total          inf                       # mshr miss rate for HardPFReq accesses
system.l2cache.HardPFReq_avg_mshr_miss_latency::.l2cache.prefetcher 60462.105263                       # average HardPFReq mshr miss latency
system.l2cache.HardPFReq_avg_mshr_miss_latency::total 60462.105263                       # average HardPFReq mshr miss latency
system.l2cache.UpgradeReq_hits::.cpu.data            1                       # number of UpgradeReq hits
system.l2cache.UpgradeReq_hits::total               1                       # number of UpgradeReq hits
system.l2cache.UpgradeReq_accesses::.cpu.data            1                       # number of UpgradeReq accesses(hits+misses)
system.l2cache.UpgradeReq_accesses::total            1                       # number of UpgradeReq accesses(hits+misses)
system.l2cache.ReadExReq_hits::.cpu.data           20                       # number of ReadExReq hits
system.l2cache.ReadExReq_hits::total               20                       # number of ReadExReq hits
system.l2cache.ReadExReq_misses::.cpu.data           78                       # number of ReadExReq misses
system.l2cache.ReadExReq_misses::total             78                       # number of ReadExReq misses
system.l2cache.ReadExReq_miss_latency::.cpu.data      5221200                       # number of ReadExReq miss cycles
system.l2cache.ReadExReq_miss_latency::total      5221200                       # number of ReadExReq miss cycles
system.l2cache.ReadExReq_accesses::.cpu.data           98                       # number of ReadExReq accesses(hits+misses)
system.l2cache.ReadExReq_accesses::total           98                       # number of ReadExReq accesses(hits+misses)
system.l2cache.ReadExReq_miss_rate::.cpu.data     0.795918                       # miss rate for ReadExReq accesses
system.l2cache.ReadExReq_miss_rate::total     0.795918                       # miss rate for ReadExReq accesses
system.l2cache.ReadExReq_avg_miss_latency::.cpu.data 66938.461538                       # average ReadExReq miss latency
system.l2cache.ReadExReq_avg_miss_latency::total 66938.461538                       # average ReadExReq miss latency
system.l2cache.ReadExReq_mshr_misses::.cpu.data           78                       # number of ReadExReq MSHR misses
system.l2cache.ReadExReq_mshr_misses::total           78                       # number of ReadExReq MSHR misses
system.l2cache.ReadExReq_mshr_miss_latency::.cpu.data      4597200                       # number of ReadExReq MSHR miss cycles
system.l2cache.ReadExReq_mshr_miss_latency::total      4597200                       # number of ReadExReq MSHR miss cycles
system.l2cache.ReadExReq_mshr_miss_rate::.cpu.data     0.795918                       # mshr miss rate for ReadExReq accesses
system.l2cache.ReadExReq_mshr_miss_rate::total     0.795918                       # mshr miss rate for ReadExReq accesses
system.l2cache.ReadExReq_avg_mshr_miss_latency::.cpu.data 58938.461538                       # average ReadExReq mshr miss latency
system.l2cache.ReadExReq_avg_mshr_miss_latency::total 58938.461538                       # average ReadExReq mshr miss latency
system.l2cache.ReadSharedReq_hits::.cpu.inst          446                       # number of ReadSharedReq hits
system.l2cache.ReadSharedReq_hits::.cpu.data          189                       # number of ReadSharedReq hits
system.l2cache.ReadSharedReq_hits::.cpu.dcache.prefetcher           19                       # number of ReadSharedReq hits
system.l2cache.ReadSharedReq_hits::total          654                       # number of ReadSharedReq hits
system.l2cache.ReadSharedReq_misses::.cpu.inst          400                       # number of ReadSharedReq misses
system.l2cache.ReadSharedReq_misses::.cpu.data          158                       # number of ReadSharedReq misses
system.l2cache.ReadSharedReq_misses::.cpu.dcache.prefetcher           35                       # number of ReadSharedReq misses
system.l2cache.ReadSharedReq_misses::total          593                       # number of ReadSharedReq misses
system.l2cache.ReadSharedReq_miss_latency::.cpu.inst     27471200                       # number of ReadSharedReq miss cycles
system.l2cache.ReadSharedReq_miss_latency::.cpu.data     10478400                       # number of ReadSharedReq miss cycles
system.l2cache.ReadSharedReq_miss_latency::.cpu.dcache.prefetcher      2369570                       # number of ReadSharedReq miss cycles
system.l2cache.ReadSharedReq_miss_latency::total     40319170                       # number of ReadSharedReq miss cycles
system.l2cache.ReadSharedReq_accesses::.cpu.inst          846                       # number of ReadSharedReq accesses(hits+misses)
system.l2cache.ReadSharedReq_accesses::.cpu.data          347                       # number of ReadSharedReq accesses(hits+misses)
system.l2cache.ReadSharedReq_accesses::.cpu.dcache.prefetcher           54                       # number of ReadSharedReq accesses(hits+misses)
system.l2cache.ReadSharedReq_accesses::total         1247                       # number of ReadSharedReq accesses(hits+misses)
system.l2cache.ReadSharedReq_miss_rate::.cpu.inst     0.472813                       # miss rate for ReadSharedReq accesses
system.l2cache.ReadSharedReq_miss_rate::.cpu.data     0.455331                       # miss rate for ReadSharedReq accesses
system.l2cache.ReadSharedReq_miss_rate::.cpu.dcache.prefetcher     0.648148                       # miss rate for ReadSharedReq accesses
system.l2cache.ReadSharedReq_miss_rate::total     0.475541                       # miss rate for ReadSharedReq accesses
system.l2cache.ReadSharedReq_avg_miss_latency::.cpu.inst        68678                       # average ReadSharedReq miss latency
system.l2cache.ReadSharedReq_avg_miss_latency::.cpu.data 66318.987342                       # average ReadSharedReq miss latency
system.l2cache.ReadSharedReq_avg_miss_latency::.cpu.dcache.prefetcher        67702                       # average ReadSharedReq miss latency
system.l2cache.ReadSharedReq_avg_miss_latency::total 67991.854975                       # average ReadSharedReq miss latency
system.l2cache.ReadSharedReq_mshr_hits::.cpu.data            1                       # number of ReadSharedReq MSHR hits
system.l2cache.ReadSharedReq_mshr_hits::total            1                       # number of ReadSharedReq MSHR hits
system.l2cache.ReadSharedReq_mshr_misses::.cpu.inst          400                       # number of ReadSharedReq MSHR misses
system.l2cache.ReadSharedReq_mshr_misses::.cpu.data          157                       # number of ReadSharedReq MSHR misses
system.l2cache.ReadSharedReq_mshr_misses::.cpu.dcache.prefetcher           35                       # number of ReadSharedReq MSHR misses
system.l2cache.ReadSharedReq_mshr_misses::total          592                       # number of ReadSharedReq MSHR misses
system.l2cache.ReadSharedReq_mshr_miss_latency::.cpu.inst     24279200                       # number of ReadSharedReq MSHR miss cycles
system.l2cache.ReadSharedReq_mshr_miss_latency::.cpu.data      9166000                       # number of ReadSharedReq MSHR miss cycles
system.l2cache.ReadSharedReq_mshr_miss_latency::.cpu.dcache.prefetcher      2089570                       # number of ReadSharedReq MSHR miss cycles
system.l2cache.ReadSharedReq_mshr_miss_latency::total     35534770                       # number of ReadSharedReq MSHR miss cycles
system.l2cache.ReadSharedReq_mshr_miss_rate::.cpu.inst     0.472813                       # mshr miss rate for ReadSharedReq accesses
system.l2cache.ReadSharedReq_mshr_miss_rate::.cpu.data     0.452450                       # mshr miss rate for ReadSharedReq accesses
system.l2cache.ReadSharedReq_mshr_miss_rate::.cpu.dcache.prefetcher     0.648148                       # mshr miss rate for ReadSharedReq accesses
system.l2cache.ReadSharedReq_mshr_miss_rate::total     0.474739                       # mshr miss rate for ReadSharedReq accesses
system.l2cache.ReadSharedReq_avg_mshr_miss_latency::.cpu.inst        60698                       # average ReadSharedReq mshr miss latency
system.l2cache.ReadSharedReq_avg_mshr_miss_latency::.cpu.data 58382.165605                       # average ReadSharedReq mshr miss latency
system.l2cache.ReadSharedReq_avg_mshr_miss_latency::.cpu.dcache.prefetcher        59702                       # average ReadSharedReq mshr miss latency
system.l2cache.ReadSharedReq_avg_mshr_miss_latency::total 60024.949324                       # average ReadSharedReq mshr miss latency
system.l2cache.prefetcher.pwrStateResidencyTicks::UNDEFINED    373600000                       # Cumulative time (in ticks) in various power states
system.l2cache.tags.pwrStateResidencyTicks::UNDEFINED    373600000                       # Cumulative time (in ticks) in various power states
system.l2cache.tags.tagsinuse                    4096                       # Cycle average of tags in use
system.l2cache.tags.total_refs                  15194                       # Total number of references to valid blocks.
system.l2cache.tags.sampled_refs                 4798                       # Sample count of references to valid blocks.
system.l2cache.tags.avg_refs                 3.166736                       # Average number of references to valid blocks.
system.l2cache.tags.warmup_cycle                    0                       # Cycle when the warmup percentage was hit.
system.l2cache.tags.occ_blocks::.writebacks    41.947973                       # Average occupied blocks per requestor
system.l2cache.tags.occ_blocks::.cpu.inst  1095.592126                       # Average occupied blocks per requestor
system.l2cache.tags.occ_blocks::.cpu.data  1811.078482                       # Average occupied blocks per requestor
system.l2cache.tags.occ_blocks::.cpu.dcache.prefetcher   943.306381                       # Average occupied blocks per requestor
system.l2cache.tags.occ_blocks::.l2cache.prefetcher   204.075039                       # Average occupied blocks per requestor
system.l2cache.tags.occ_percent::.writebacks     0.010241                       # Average percentage of cache occupancy
system.l2cache.tags.occ_percent::.cpu.inst     0.267479                       # Average percentage of cache occupancy
system.l2cache.tags.occ_percent::.cpu.data     0.442158                       # Average percentage of cache occupancy
system.l2cache.tags.occ_percent::.cpu.dcache.prefetcher     0.230299                       # Average percentage of cache occupancy
system.l2cache.tags.occ_percent::.l2cache.prefetcher     0.049823                       # Average percentage of cache occupancy
system.l2cache.tags.occ_percent::total              1                       # Average percentage of cache occupancy
system.l2cache.tags.occ_task_id_blocks::1022         1065                       # Occupied blocks per task id
system.l2cache.tags.occ_task_id_blocks::1024         3031                       # Occupied blocks per task id
system.l2cache.tags.age_task_id_blocks_1022::0            5                       # Occupied blocks per task id
system.l2cache.tags.age_task_id_blocks_1022::1            8                       # Occupied blocks per task id
system.l2cache.tags.age_task_id_blocks_1022::2         1017                       # Occupied blocks per task id
system.l2cache.tags.age_task_id_blocks_1022::3           35                       # Occupied blocks per task id
system.l2cache.tags.age_task_id_blocks_1024::0          171                       # Occupied blocks per task id
system.l2cache.tags.age_task_id_blocks_1024::1           73                       # Occupied blocks per task id
system.l2cache.tags.age_task_id_blocks_1024::2         2569                       # Occupied blocks per task id
system.l2cache.tags.age_task_id_blocks_1024::3          218                       # Occupied blocks per task id
system.l2cache.tags.occ_task_id_percent::1022     0.260010                       # Percentage of cache occupancy per task id
system.l2cache.tags.occ_task_id_percent::1024     0.739990                       # Percentage of cache occupancy per task id
system.l2cache.tags.tag_accesses                22158                       # Number of tag accesses
system.l2cache.tags.data_accesses               22158                       # Number of data accesses
system.mem_ctrl.pwrStateResidencyTicks::UNDEFINED    373600000                       # Cumulative time (in ticks) in various power states
system.mem_ctrl.bytes_read::.cpu.inst           25536                       # Number of bytes read from this memory
system.mem_ctrl.bytes_read::.cpu.data           15040                       # Number of bytes read from this memory
system.mem_ctrl.bytes_read::.cpu.dcache.prefetcher         2240                       # Number of bytes read from this memory
system.mem_ctrl.bytes_read::.l2cache.prefetcher         1216                       # Number of bytes read from this memory
system.mem_ctrl.bytes_read::total               44032                       # Number of bytes read from this memory
system.mem_ctrl.bytes_inst_read::.cpu.inst        25536                       # Number of instructions bytes read from this memory
system.mem_ctrl.bytes_inst_read::total          25536                       # Number of instructions bytes read from this memory
system.mem_ctrl.bytes_written::.writebacks         3264                       # Number of bytes written to this memory
system.mem_ctrl.bytes_written::total             3264                       # Number of bytes written to this memory
system.mem_ctrl.num_reads::.cpu.inst              399                       # Number of read requests responded to by this memory
system.mem_ctrl.num_reads::.cpu.data              235                       # Number of read requests responded to by this memory
system.mem_ctrl.num_reads::.cpu.dcache.prefetcher           35                       # Number of read requests responded to by this memory
system.mem_ctrl.num_reads::.l2cache.prefetcher           19                       # Number of read requests responded to by this memory
system.mem_ctrl.num_reads::total                  688                       # Number of read requests responded to by this memory
system.mem_ctrl.num_writes::.writebacks            51                       # Number of write requests responded to by this memory
system.mem_ctrl.num_writes::total                  51                       # Number of write requests responded to by this memory
system.mem_ctrl.bw_read::.cpu.inst           68351178                       # Total read bandwidth from this memory (bytes/s)
system.mem_ctrl.bw_read::.cpu.data           40256959                       # Total read bandwidth from this memory (bytes/s)
system.mem_ctrl.bw_read::.cpu.dcache.prefetcher      5995717                       # Total read bandwidth from this memory (bytes/s)
system.mem_ctrl.bw_read::.l2cache.prefetcher      3254818                       # Total read bandwidth from this memory (bytes/s)
system.mem_ctrl.bw_read::total              117858672                       # Total read bandwidth from this memory (bytes/s)
system.mem_ctrl.bw_inst_read::.cpu.inst      68351178                       # Instruction read bandwidth from this memory (bytes/s)
system.mem_ctrl.bw_inst_read::total          68351178                       # Instruction read bandwidth from this memory (bytes/s)
system.mem_ctrl.bw_write::.writebacks         8736617                       # Write bandwidth from this memory (bytes/s)
system.mem_ctrl.bw_write::total               8736617                       # Write bandwidth from this memory (bytes/s)
system.mem_ctrl.bw_total::.writebacks         8736617                       # Total bandwidth to/from this memory (bytes/s)
system.mem_ctrl.bw_total::.cpu.inst          68351178                       # Total bandwidth to/from this memory (bytes/s)
system.mem_ctrl.bw_total::.cpu.data          40256959                       # Total bandwidth to/from this memory (bytes/s)
system.mem_ctrl.bw_total::.cpu.dcache.prefetcher      5995717                       # Total bandwidth to/from this memory (bytes/s)
system.mem_ctrl.bw_total::.l2cache.prefetcher      3254818                       # Total bandwidth to/from this memory (bytes/s)
system.mem_ctrl.bw_total::total             126595289                       # Total bandwidth to/from this memory (bytes/s)

---------- End Simulation Statistics   ----------
