
---------- Begin Simulation Statistics ----------
final_tick                                 1069973200                       # Number of ticks from beginning of simulation (restored from checkpoints and never reset)
host_inst_rate                                 167059                       # Simulator instruction rate (inst/s)
host_mem_usage                                4402732                       # Number of bytes of host memory used
host_op_rate                                   290349                       # Simulator op (including micro ops) rate (op/s)
host_seconds                                    12.13                       # Real time elapsed on the host
host_tick_rate                               88201087                       # Simulator tick rate (ticks/s)
sim_freq                                 1000000000000                       # Frequency of simulated ticks
sim_insts                                     2026593                       # Number of instructions simulated
sim_ops                                       3522239                       # Number of ops (including micro ops) simulated
sim_seconds                                  0.001070                       # Number of seconds simulated
sim_ticks                                  1069973200                       # Number of ticks simulated
system.cpu.branchPred.BTBCorrect                    0                       # Number of correct BTB predictions (this stat may not work properly.
system.cpu.branchPred.BTBHitPct              0.000000                       # BTB Hit Percentage
system.cpu.branchPred.BTBHits                       0                       # Number of BTB hits
system.cpu.branchPred.BTBLookups               425136                       # Number of BTB lookups
system.cpu.branchPred.RASInCorrect                  8                       # Number of incorrect RAS predictions.
system.cpu.branchPred.condIncorrect             23774                       # Number of conditional branches incorrect
system.cpu.branchPred.condPredicted            454537                       # Number of conditional branches predicted
system.cpu.branchPred.indirectHits             233646                       # Number of indirect target hits.
system.cpu.branchPred.indirectLookups          425136                       # Number of indirect predictor lookups.
system.cpu.branchPred.indirectMisses           191490                       # Number of indirect misses.
system.cpu.branchPred.lookups                  479818                       # Number of BP lookups
system.cpu.branchPred.usedRAS                   10918                       # Number of times the RAS was used to get a target.
system.cpu.branchPredindirectMispredicted        11907                       # Number of mispredicted indirect branches.
system.cpu.cc_regfile_reads                   2326307                       # number of cc regfile reads
system.cpu.cc_regfile_writes                  1899141                       # number of cc regfile writes
system.cpu.commit.amos                              0                       # Number of atomic instructions committed
system.cpu.commit.branchMispredicts             23882                       # The number of times a branch was mispredicted
system.cpu.commit.branches                     339554                       # Number of branches committed
system.cpu.commit.bw_lim_events                586218                       # number cycles where commit BW limit reached
system.cpu.commit.commitNonSpecStalls             732                       # The number of times commit has been forced to stall to communicate backwards
system.cpu.commit.commitSquashedInsts          868463                       # The number of squashed insts skipped by commit
system.cpu.commit.committedInsts              2026593                       # Number of instructions committed
system.cpu.commit.committedOps                3522239                       # Number of ops (including micro ops) committed
system.cpu.commit.committed_per_cycle::samples      2289533                       # Number of insts commited each cycle
system.cpu.commit.committed_per_cycle::mean     1.538409                       # Number of insts commited each cycle
system.cpu.commit.committed_per_cycle::stdev     1.726350                       # Number of insts commited each cycle
system.cpu.commit.committed_per_cycle::underflows            0      0.00%      0.00% # Number of insts commited each cycle
system.cpu.commit.committed_per_cycle::0      1142974     49.92%     49.92% # Number of insts commited each cycle
system.cpu.commit.committed_per_cycle::1       168913      7.38%     57.30% # Number of insts commited each cycle
system.cpu.commit.committed_per_cycle::2       165830      7.24%     64.54% # Number of insts commited each cycle
system.cpu.commit.committed_per_cycle::3       225598      9.85%     74.40% # Number of insts commited each cycle
system.cpu.commit.committed_per_cycle::4       586218     25.60%    100.00% # Number of insts commited each cycle
system.cpu.commit.committed_per_cycle::overflows            0      0.00%    100.00% # Number of insts commited each cycle
system.cpu.commit.committed_per_cycle::min_value            0                       # Number of insts commited each cycle
system.cpu.commit.committed_per_cycle::max_value            4                       # Number of insts commited each cycle
system.cpu.commit.committed_per_cycle::total      2289533                       # Number of insts commited each cycle
system.cpu.commit.fp_insts                      73394                       # Number of committed floating point instructions.
system.cpu.commit.function_calls                 9075                       # Number of function calls committed.
system.cpu.commit.int_insts                   3467433                       # Number of committed integer instructions.
system.cpu.commit.loads                        484724                       # Number of loads committed
system.cpu.commit.membars                           1                       # Number of memory barriers committed
system.cpu.commit.op_class_0::No_OpClass        20374      0.58%      0.58% # Class of committed instruction
system.cpu.commit.op_class_0::IntAlu          2770935     78.67%     79.25% # Class of committed instruction
system.cpu.commit.op_class_0::IntMult              27      0.00%     79.25% # Class of committed instruction
system.cpu.commit.op_class_0::IntDiv            37410      1.06%     80.31% # Class of committed instruction
system.cpu.commit.op_class_0::FloatAdd           2872      0.08%     80.39% # Class of committed instruction
system.cpu.commit.op_class_0::FloatCmp              0      0.00%     80.39% # Class of committed instruction
system.cpu.commit.op_class_0::FloatCvt           1200      0.03%     80.43% # Class of committed instruction
system.cpu.commit.op_class_0::FloatMult             0      0.00%     80.43% # Class of committed instruction
system.cpu.commit.op_class_0::FloatMultAcc            0      0.00%     80.43% # Class of committed instruction
system.cpu.commit.op_class_0::FloatDiv              0      0.00%     80.43% # Class of committed instruction
system.cpu.commit.op_class_0::FloatMisc             0      0.00%     80.43% # Class of committed instruction
system.cpu.commit.op_class_0::FloatSqrt             0      0.00%     80.43% # Class of committed instruction
system.cpu.commit.op_class_0::SimdAdd            6222      0.18%     80.60% # Class of committed instruction
system.cpu.commit.op_class_0::SimdAddAcc            0      0.00%     80.60% # Class of committed instruction
system.cpu.commit.op_class_0::SimdAlu           11219      0.32%     80.92% # Class of committed instruction
system.cpu.commit.op_class_0::SimdCmp               0      0.00%     80.92% # Class of committed instruction
system.cpu.commit.op_class_0::SimdCvt           12126      0.34%     81.27% # Class of committed instruction
system.cpu.commit.op_class_0::SimdMisc           6517      0.19%     81.45% # Class of committed instruction
system.cpu.commit.op_class_0::SimdMult              0      0.00%     81.45% # Class of committed instruction
system.cpu.commit.op_class_0::SimdMultAcc            0      0.00%     81.45% # Class of committed instruction
system.cpu.commit.op_class_0::SimdShift          1180      0.03%     81.48% # Class of committed instruction
system.cpu.commit.op_class_0::SimdShiftAcc            0      0.00%     81.48% # Class of committed instruction
system.cpu.commit.op_class_0::SimdDiv               0      0.00%     81.48% # Class of committed instruction
system.cpu.commit.op_class_0::SimdSqrt              0      0.00%     81.48% # Class of committed instruction
system.cpu.commit.op_class_0::SimdFloatAdd            0      0.00%     81.48% # Class of committed instruction
system.cpu.commit.op_class_0::SimdFloatAlu            0      0.00%     81.48% # Class of committed instruction
system.cpu.commit.op_class_0::SimdFloatCmp            0      0.00%     81.48% # Class of committed instruction
system.cpu.commit.op_class_0::SimdFloatCvt            0      0.00%     81.48% # Class of committed instruction
system.cpu.commit.op_class_0::SimdFloatDiv            0      0.00%     81.48% # Class of committed instruction
system.cpu.commit.op_class_0::SimdFloatMisc            0      0.00%     81.48% # Class of committed instruction
system.cpu.commit.op_class_0::SimdFloatMult            0      0.00%     81.48% # Class of committed instruction
system.cpu.commit.op_class_0::SimdFloatMultAcc            0      0.00%     81.48% # Class of committed instruction
system.cpu.commit.op_class_0::SimdFloatSqrt            0      0.00%     81.48% # Class of committed instruction
system.cpu.commit.op_class_0::SimdReduceAdd            0      0.00%     81.48% # Class of committed instruction
system.cpu.commit.op_class_0::SimdReduceAlu            0      0.00%     81.48% # Class of committed instruction
system.cpu.commit.op_class_0::SimdReduceCmp            0      0.00%     81.48% # Class of committed instruction
system.cpu.commit.op_class_0::SimdFloatReduceAdd            0      0.00%     81.48% # Class of committed instruction
system.cpu.commit.op_class_0::SimdFloatReduceCmp            0      0.00%     81.48% # Class of committed instruction
system.cpu.commit.op_class_0::SimdAes               0      0.00%     81.48% # Class of committed instruction
system.cpu.commit.op_class_0::SimdAesMix            0      0.00%     81.48% # Class of committed instruction
system.cpu.commit.op_class_0::SimdSha1Hash            0      0.00%     81.48% # Class of committed instruction
system.cpu.commit.op_class_0::SimdSha1Hash2            0      0.00%     81.48% # Class of committed instruction
system.cpu.commit.op_class_0::SimdSha256Hash            0      0.00%     81.48% # Class of committed instruction
system.cpu.commit.op_class_0::SimdSha256Hash2            0      0.00%     81.48% # Class of committed instruction
system.cpu.commit.op_class_0::SimdShaSigma2            0      0.00%     81.48% # Class of committed instruction
system.cpu.commit.op_class_0::SimdShaSigma3            0      0.00%     81.48% # Class of committed instruction
system.cpu.commit.op_class_0::SimdPredAlu            0      0.00%     81.48% # Class of committed instruction
system.cpu.commit.op_class_0::MemRead          465574     13.22%     94.70% # Class of committed instruction
system.cpu.commit.op_class_0::MemWrite         155364      4.41%     99.11% # Class of committed instruction
system.cpu.commit.op_class_0::FloatMemRead        19150      0.54%     99.66% # Class of committed instruction
system.cpu.commit.op_class_0::FloatMemWrite        12069      0.34%    100.00% # Class of committed instruction
system.cpu.commit.op_class_0::IprAccess             0      0.00%    100.00% # Class of committed instruction
system.cpu.commit.op_class_0::InstPrefetch            0      0.00%    100.00% # Class of committed instruction
system.cpu.commit.op_class_0::total           3522239                       # Class of committed instruction
system.cpu.commit.refs                         652157                       # Number of memory references committed
system.cpu.commit.swp_count                         0                       # Number of s/w prefetches committed
system.cpu.commit.vec_insts                         0                       # Number of committed Vector instructions.
system.cpu.committedInsts                     2026593                       # Number of Instructions Simulated
system.cpu.committedOps                       3522239                       # Number of Ops (including micro ops) Simulated
system.cpu.cpi                               1.319917                       # CPI: Cycles Per Instruction
system.cpu.cpi_total                         1.319917                       # CPI: Total CPI of All Threads
system.cpu.dcache.prefetcher.num_hwpf_issued         8154                       # number of hwpf issued
system.cpu.dcache.prefetcher.pfBufferHit        34030                       # number of redundant prefetches already in prefetch queue
system.cpu.dcache.prefetcher.pfIdentified        50079                       # number of prefetch candidates identified
system.cpu.dcache.prefetcher.pfInCache              0                       # number of redundant prefetches already in cache/mshr dropped
system.cpu.dcache.prefetcher.pfRemovedFull            0                       # number of prefetches dropped due to prefetch queue size
system.cpu.dcache.prefetcher.pfSpanPage          4537                       # number of prefetches that crossed the page
system.cpu.decode.BlockedCycles               1013361                       # Number of cycles decode is blocked
system.cpu.decode.DecodedInsts                4602769                       # Number of instructions handled by decode
system.cpu.decode.IdleCycles                   284892                       # Number of cycles decode is idle
system.cpu.decode.RunCycles                   1118739                       # Number of cycles decode is running
system.cpu.decode.SquashCycles                  23940                       # Number of cycles decode is squashing
system.cpu.decode.UnblockCycles                 85635                       # Number of cycles decode is unblocking
system.cpu.dtb.rdAccesses                      565669                       # TLB accesses on read requests
system.cpu.dtb.rdMisses                          1989                       # TLB misses on read requests
system.cpu.dtb.wrAccesses                      186439                       # TLB accesses on write requests
system.cpu.dtb.wrMisses                           174                       # TLB misses on write requests
system.cpu.fetch.Branches                      479818                       # Number of branches that fetch encountered
system.cpu.fetch.CacheLines                    234081                       # Number of cache lines fetched
system.cpu.fetch.Cycles                       2182204                       # Number of cycles fetch has run and was not squashing or blocked
system.cpu.fetch.IcacheSquashes                  4558                       # Number of outstanding Icache misses that were squashed
system.cpu.fetch.IcacheWaitRetryStallCycles           17                       # Number of stall cycles due to full MSHR
system.cpu.fetch.Insts                        2781877                       # Number of instructions fetch has processed
system.cpu.fetch.MiscStallCycles                  116                       # Number of cycles fetch has spent waiting on interrupts, or bad addresses, or out of MSHRs
system.cpu.fetch.PendingQuiesceStallCycles            6                       # Number of stall cycles due to pending quiesce instructions
system.cpu.fetch.PendingTrapStallCycles           743                       # Number of stall cycles due to pending traps
system.cpu.fetch.SquashCycles                   47880                       # Number of cycles fetch has spent squashing
system.cpu.fetch.branchRate                  0.179376                       # Number of branch fetches per cycle
system.cpu.fetch.icacheStallCycles             319541                       # Number of cycles fetch is stalled on an Icache miss
system.cpu.fetch.predictedBranches             244564                       # Number of branches that fetch has predicted taken
system.cpu.fetch.rate                        1.039980                       # Number of inst fetches per cycle
system.cpu.fetch.rateDist::samples            2526567                       # Number of instructions fetched each cycle (Total)
system.cpu.fetch.rateDist::mean              1.928580                       # Number of instructions fetched each cycle (Total)
system.cpu.fetch.rateDist::stdev             1.931513                       # Number of instructions fetched each cycle (Total)
system.cpu.fetch.rateDist::underflows               0      0.00%      0.00% # Number of instructions fetched each cycle (Total)
system.cpu.fetch.rateDist::0                  1207588     47.80%     47.80% # Number of instructions fetched each cycle (Total)
system.cpu.fetch.rateDist::1                    71206      2.82%     50.61% # Number of instructions fetched each cycle (Total)
system.cpu.fetch.rateDist::2                    57518      2.28%     52.89% # Number of instructions fetched each cycle (Total)
system.cpu.fetch.rateDist::3                    74576      2.95%     55.84% # Number of instructions fetched each cycle (Total)
system.cpu.fetch.rateDist::4                  1115679     44.16%    100.00% # Number of instructions fetched each cycle (Total)
system.cpu.fetch.rateDist::overflows                0      0.00%    100.00% # Number of instructions fetched each cycle (Total)
system.cpu.fetch.rateDist::min_value                0                       # Number of instructions fetched each cycle (Total)
system.cpu.fetch.rateDist::max_value                4                       # Number of instructions fetched each cycle (Total)
system.cpu.fetch.rateDist::total              2526567                       # Number of instructions fetched each cycle (Total)
system.cpu.fp_regfile_reads                    120550                       # number of floating regfile reads
system.cpu.fp_regfile_writes                    66259                       # number of floating regfile writes
system.cpu.fuPool.fu_ticks_busy::IntALU(0)    212728800                       # Total ticks fu was busy
system.cpu.fuPool.fu_ticks_busy::IntALU(1)    212728800                       # Total ticks fu was busy
system.cpu.fuPool.fu_ticks_busy::IntALU(2)    212728800                       # Total ticks fu was busy
system.cpu.fuPool.fu_ticks_busy::IntALU(3)    212728800                       # Total ticks fu was busy
system.cpu.fuPool.fu_ticks_busy::IntALU(4)    212728800                       # Total ticks fu was busy
system.cpu.fuPool.fu_ticks_busy::IntALU(5)    212728800                       # Total ticks fu was busy
system.cpu.fuPool.fu_ticks_busy::IntMultDiv(0)      8228000                       # Total ticks fu was busy
system.cpu.fuPool.fu_ticks_busy::IntMultDiv(1)      8227200                       # Total ticks fu was busy
system.cpu.fuPool.fu_ticks_busy::FP_ALU(0)       567600                       # Total ticks fu was busy
system.cpu.fuPool.fu_ticks_busy::FP_ALU(1)       567600                       # Total ticks fu was busy
system.cpu.fuPool.fu_ticks_busy::FP_ALU(2)       566800                       # Total ticks fu was busy
system.cpu.fuPool.fu_ticks_busy::FP_ALU(3)       566800                       # Total ticks fu was busy
system.cpu.fuPool.fu_ticks_busy::FP_MultDiv(0)            0                       # Total ticks fu was busy
system.cpu.fuPool.fu_ticks_busy::FP_MultDiv(1)            0                       # Total ticks fu was busy
system.cpu.fuPool.fu_ticks_busy::SIMD_Unit(0)      4473600                       # Total ticks fu was busy
system.cpu.fuPool.fu_ticks_busy::SIMD_Unit(1)      4391200                       # Total ticks fu was busy
system.cpu.fuPool.fu_ticks_busy::SIMD_Unit(2)      4568800                       # Total ticks fu was busy
system.cpu.fuPool.fu_ticks_busy::SIMD_Unit(3)      4652400                       # Total ticks fu was busy
system.cpu.fuPool.fu_ticks_busy::PredALU(0)            0                       # Total ticks fu was busy
system.cpu.fuPool.fu_ticks_busy::RdWrPort(0)     76657200                       # Total ticks fu was busy
system.cpu.fuPool.fu_ticks_busy::RdWrPort(1)     76631600                       # Total ticks fu was busy
system.cpu.fuPool.fu_ticks_busy::RdWrPort(2)     76646800                       # Total ticks fu was busy
system.cpu.fuPool.fu_ticks_busy::RdWrPort(3)     76631200                       # Total ticks fu was busy
system.cpu.fuPool.fu_ticks_busy::IprPort(0)            0                       # Total ticks fu was busy
system.cpu.fuPool.fu_ticks_busy::total     1619749600                       # Total ticks fu was busy
system.cpu.icache.prefetcher.num_hwpf_issued            0                       # number of hwpf issued
system.cpu.icache.prefetcher.pfBufferHit            0                       # number of redundant prefetches already in prefetch queue
system.cpu.icache.prefetcher.pfIdentified            0                       # number of prefetch candidates identified
system.cpu.icache.prefetcher.pfInCache              0                       # number of redundant prefetches already in cache/mshr dropped
system.cpu.icache.prefetcher.pfRemovedFull            0                       # number of prefetches dropped due to prefetch queue size
system.cpu.icache.prefetcher.pfSpanPage             0                       # number of prefetches that crossed the page
system.cpu.idleCycles                          148367                       # Total number of cycles that the CPU has spent unscheduled due to idling
system.cpu.iew.branchMispredicts                28214                       # Number of branch mispredicts detected at execute
system.cpu.iew.exec_branches                   368751                       # Number of branches executed
system.cpu.iew.exec_nop                             0                       # number of nop insts executed
system.cpu.iew.exec_rate                     1.511128                       # Inst execution rate
system.cpu.iew.exec_refs                       753750                       # number of memory reference insts executed
system.cpu.iew.exec_stores                     186431                       # Number of stores executed
system.cpu.iew.exec_swp                             0                       # number of swp insts executed
system.cpu.iew.iewBlockCycles                  693187                       # Number of cycles IEW is blocking
system.cpu.iew.iewDispLoadInsts                597524                       # Number of dispatched load instructions
system.cpu.iew.iewDispNonSpecInsts                912                       # Number of dispatched non-speculative instructions
system.cpu.iew.iewDispSquashedInsts               605                       # Number of squashed instructions skipped by dispatch
system.cpu.iew.iewDispStoreInsts               196710                       # Number of dispatched store instructions
system.cpu.iew.iewDispatchedInsts             4390662                       # Number of instructions dispatched to IQ
system.cpu.iew.iewExecLoadInsts                567319                       # Number of load instructions executed
system.cpu.iew.iewExecSquashedInsts             33765                       # Number of squashed instructions skipped in execute
system.cpu.iew.iewExecutedInsts               4042169                       # Number of executed instructions
system.cpu.iew.iewIQFullEvents                   3289                       # Number of times the IQ has become full, causing a stall
system.cpu.iew.iewIdleCycles                        0                       # Number of cycles IEW is idle
system.cpu.iew.iewLSQFullEvents                 10740                       # Number of times the LSQ has become full, causing a stall
system.cpu.iew.iewSquashCycles                  23940                       # Number of cycles IEW is squashing
system.cpu.iew.iewUnblockCycles                 16834                       # Number of cycles IEW is unblocking
system.cpu.iew.lsq.thread0.blockedLoads             0                       # Number of blocked loads due to partial load-store forwarding
system.cpu.iew.lsq.thread0.cacheBlocked           606                       # Number of times an access to memory failed due to the cache being blocked
system.cpu.iew.lsq.thread0.forwLoads            39008                       # Number of loads that had data forwarded from stores
system.cpu.iew.lsq.thread0.ignoredResponses          226                       # Number of memory responses ignored because the instruction is squashed
system.cpu.iew.lsq.thread0.invAddrLoads             0                       # Number of loads ignored due to an invalid address
system.cpu.iew.lsq.thread0.invAddrSwpfs             0                       # Number of software prefetches ignored due to an invalid address
system.cpu.iew.lsq.thread0.memOrderViolation           67                       # Number of memory ordering violations
system.cpu.iew.lsq.thread0.rescheduledLoads            0                       # Number of loads that were rescheduled
system.cpu.iew.lsq.thread0.squashedLoads       112798                       # Number of loads squashed
system.cpu.iew.lsq.thread0.squashedStores        29276                       # Number of stores squashed
system.cpu.iew.memOrderViolationEvents             67                       # Number of memory order violations
system.cpu.iew.predictedNotTakenIncorrect        20107                       # Number of branches that were predicted not taken incorrectly
system.cpu.iew.predictedTakenIncorrect           8107                       # Number of branches that were predicted taken incorrectly
system.cpu.iew.wb_consumers                   5671957                       # num instructions consuming a value
system.cpu.iew.wb_count                       4020681                       # cumulative count of insts written-back
system.cpu.iew.wb_fanout                     0.566916                       # average fanout of values written-back
system.cpu.iew.wb_producers                   3215523                       # num instructions producing a value
system.cpu.iew.wb_rate                       1.503095                       # insts written-back per cycle
system.cpu.iew.wb_sent                        4027457                       # cumulative count of insts sent to commit
system.cpu.int_regfile_reads                  6260269                       # number of integer regfile reads
system.cpu.int_regfile_writes                 3473002                       # number of integer regfile writes
system.cpu.ipc                               0.757624                       # IPC: Instructions Per Cycle
system.cpu.ipc_total                         0.757624                       # IPC: Total IPC of All Threads
system.cpu.iq.FU_type_0::No_OpClass             26560      0.65%      0.65% # Type of FU issued
system.cpu.iq.FU_type_0::IntAlu               3190933     78.29%     78.94% # Type of FU issued
system.cpu.iq.FU_type_0::IntMult                   61      0.00%     78.94% # Type of FU issued
system.cpu.iq.FU_type_0::IntDiv                 41077      1.01%     79.95% # Type of FU issued
system.cpu.iq.FU_type_0::FloatAdd                4414      0.11%     80.06% # Type of FU issued
system.cpu.iq.FU_type_0::FloatCmp                   0      0.00%     80.06% # Type of FU issued
system.cpu.iq.FU_type_0::FloatCvt                1258      0.03%     80.09% # Type of FU issued
system.cpu.iq.FU_type_0::FloatMult                  0      0.00%     80.09% # Type of FU issued
system.cpu.iq.FU_type_0::FloatMultAcc               0      0.00%     80.09% # Type of FU issued
system.cpu.iq.FU_type_0::FloatDiv                   0      0.00%     80.09% # Type of FU issued
system.cpu.iq.FU_type_0::FloatMisc                  0      0.00%     80.09% # Type of FU issued
system.cpu.iq.FU_type_0::FloatSqrt                  0      0.00%     80.09% # Type of FU issued
system.cpu.iq.FU_type_0::SimdAdd                 6874      0.17%     80.26% # Type of FU issued
system.cpu.iq.FU_type_0::SimdAddAcc                 0      0.00%     80.26% # Type of FU issued
system.cpu.iq.FU_type_0::SimdAlu                15075      0.37%     80.63% # Type of FU issued
system.cpu.iq.FU_type_0::SimdCmp                    0      0.00%     80.63% # Type of FU issued
system.cpu.iq.FU_type_0::SimdCvt                13894      0.34%     80.97% # Type of FU issued
system.cpu.iq.FU_type_0::SimdMisc                7107      0.17%     81.14% # Type of FU issued
system.cpu.iq.FU_type_0::SimdMult                   0      0.00%     81.14% # Type of FU issued
system.cpu.iq.FU_type_0::SimdMultAcc                0      0.00%     81.14% # Type of FU issued
system.cpu.iq.FU_type_0::SimdShift               2265      0.06%     81.20% # Type of FU issued
system.cpu.iq.FU_type_0::SimdShiftAcc               0      0.00%     81.20% # Type of FU issued
system.cpu.iq.FU_type_0::SimdDiv                    0      0.00%     81.20% # Type of FU issued
system.cpu.iq.FU_type_0::SimdSqrt                   0      0.00%     81.20% # Type of FU issued
system.cpu.iq.FU_type_0::SimdFloatAdd               0      0.00%     81.20% # Type of FU issued
system.cpu.iq.FU_type_0::SimdFloatAlu               0      0.00%     81.20% # Type of FU issued
system.cpu.iq.FU_type_0::SimdFloatCmp               0      0.00%     81.20% # Type of FU issued
system.cpu.iq.FU_type_0::SimdFloatCvt               0      0.00%     81.20% # Type of FU issued
system.cpu.iq.FU_type_0::SimdFloatDiv               0      0.00%     81.20% # Type of FU issued
system.cpu.iq.FU_type_0::SimdFloatMisc              0      0.00%     81.20% # Type of FU issued
system.cpu.iq.FU_type_0::SimdFloatMult              0      0.00%     81.20% # Type of FU issued
system.cpu.iq.FU_type_0::SimdFloatMultAcc            0      0.00%     81.20% # Type of FU issued
system.cpu.iq.FU_type_0::SimdFloatSqrt              0      0.00%     81.20% # Type of FU issued
system.cpu.iq.FU_type_0::SimdReduceAdd              0      0.00%     81.20% # Type of FU issued
system.cpu.iq.FU_type_0::SimdReduceAlu              0      0.00%     81.20% # Type of FU issued
system.cpu.iq.FU_type_0::SimdReduceCmp              0      0.00%     81.20% # Type of FU issued
system.cpu.iq.FU_type_0::SimdFloatReduceAdd            0      0.00%     81.20% # Type of FU issued
system.cpu.iq.FU_type_0::SimdFloatReduceCmp            0      0.00%     81.20% # Type of FU issued
system.cpu.iq.FU_type_0::SimdAes                    0      0.00%     81.20% # Type of FU issued
system.cpu.iq.FU_type_0::SimdAesMix                 0      0.00%     81.20% # Type of FU issued
system.cpu.iq.FU_type_0::SimdSha1Hash               0      0.00%     81.20% # Type of FU issued
system.cpu.iq.FU_type_0::SimdSha1Hash2              0      0.00%     81.20% # Type of FU issued
system.cpu.iq.FU_type_0::SimdSha256Hash             0      0.00%     81.20% # Type of FU issued
system.cpu.iq.FU_type_0::SimdSha256Hash2            0      0.00%     81.20% # Type of FU issued
system.cpu.iq.FU_type_0::SimdShaSigma2              0      0.00%     81.20% # Type of FU issued
system.cpu.iq.FU_type_0::SimdShaSigma3              0      0.00%     81.20% # Type of FU issued
system.cpu.iq.FU_type_0::SimdPredAlu                0      0.00%     81.20% # Type of FU issued
system.cpu.iq.FU_type_0::MemRead               552402     13.55%     94.75% # Type of FU issued
system.cpu.iq.FU_type_0::MemWrite              175479      4.31%     99.05% # Type of FU issued
system.cpu.iq.FU_type_0::FloatMemRead           25053      0.61%     99.67% # Type of FU issued
system.cpu.iq.FU_type_0::FloatMemWrite          13485      0.33%    100.00% # Type of FU issued
system.cpu.iq.FU_type_0::IprAccess                  0      0.00%    100.00% # Type of FU issued
system.cpu.iq.FU_type_0::InstPrefetch               0      0.00%    100.00% # Type of FU issued
system.cpu.iq.FU_type_0::total                4075937                       # Type of FU issued
system.cpu.iq.fp_alu_accesses                   90446                       # Number of floating point alu accesses
system.cpu.iq.fp_inst_queue_reads              182256                       # Number of floating instruction queue reads
system.cpu.iq.fp_inst_queue_wakeup_accesses        87039                       # Number of floating instruction queue wakeup accesses
system.cpu.iq.fp_inst_queue_writes             132056                       # Number of floating instruction queue writes
system.cpu.iq.fu_busy_cnt                           0                       # FU busy when requested
system.cpu.iq.fu_busy_rate                          0                       # FU busy rate (busy events/executed inst)
system.cpu.iq.fu_full::No_OpClass                   0                       # attempts to use FU when none available
system.cpu.iq.fu_full::IntAlu                       0                       # attempts to use FU when none available
system.cpu.iq.fu_full::IntMult                      0                       # attempts to use FU when none available
system.cpu.iq.fu_full::IntDiv                       0                       # attempts to use FU when none available
system.cpu.iq.fu_full::FloatAdd                     0                       # attempts to use FU when none available
system.cpu.iq.fu_full::FloatCmp                     0                       # attempts to use FU when none available
system.cpu.iq.fu_full::FloatCvt                     0                       # attempts to use FU when none available
system.cpu.iq.fu_full::FloatMult                    0                       # attempts to use FU when none available
system.cpu.iq.fu_full::FloatMultAcc                 0                       # attempts to use FU when none available
system.cpu.iq.fu_full::FloatDiv                     0                       # attempts to use FU when none available
system.cpu.iq.fu_full::FloatMisc                    0                       # attempts to use FU when none available
system.cpu.iq.fu_full::FloatSqrt                    0                       # attempts to use FU when none available
system.cpu.iq.fu_full::SimdAdd                      0                       # attempts to use FU when none available
system.cpu.iq.fu_full::SimdAddAcc                   0                       # attempts to use FU when none available
system.cpu.iq.fu_full::SimdAlu                      0                       # attempts to use FU when none available
system.cpu.iq.fu_full::SimdCmp                      0                       # attempts to use FU when none available
system.cpu.iq.fu_full::SimdCvt                      0                       # attempts to use FU when none available
system.cpu.iq.fu_full::SimdMisc                     0                       # attempts to use FU when none available
system.cpu.iq.fu_full::SimdMult                     0                       # attempts to use FU when none available
system.cpu.iq.fu_full::SimdMultAcc                  0                       # attempts to use FU when none available
system.cpu.iq.fu_full::SimdShift                    0                       # attempts to use FU when none available
system.cpu.iq.fu_full::SimdShiftAcc                 0                       # attempts to use FU when none available
system.cpu.iq.fu_full::SimdDiv                      0                       # attempts to use FU when none available
system.cpu.iq.fu_full::SimdSqrt                     0                       # attempts to use FU when none available
system.cpu.iq.fu_full::SimdFloatAdd                 0                       # attempts to use FU when none available
system.cpu.iq.fu_full::SimdFloatAlu                 0                       # attempts to use FU when none available
system.cpu.iq.fu_full::SimdFloatCmp                 0                       # attempts to use FU when none available
system.cpu.iq.fu_full::SimdFloatCvt                 0                       # attempts to use FU when none available
system.cpu.iq.fu_full::SimdFloatDiv                 0                       # attempts to use FU when none available
system.cpu.iq.fu_full::SimdFloatMisc                0                       # attempts to use FU when none available
system.cpu.iq.fu_full::SimdFloatMult                0                       # attempts to use FU when none available
system.cpu.iq.fu_full::SimdFloatMultAcc             0                       # attempts to use FU when none available
system.cpu.iq.fu_full::SimdFloatSqrt                0                       # attempts to use FU when none available
system.cpu.iq.fu_full::SimdReduceAdd                0                       # attempts to use FU when none available
system.cpu.iq.fu_full::SimdReduceAlu                0                       # attempts to use FU when none available
system.cpu.iq.fu_full::SimdReduceCmp                0                       # attempts to use FU when none available
system.cpu.iq.fu_full::SimdFloatReduceAdd            0                       # attempts to use FU when none available
system.cpu.iq.fu_full::SimdFloatReduceCmp            0                       # attempts to use FU when none available
system.cpu.iq.fu_full::SimdAes                      0                       # attempts to use FU when none available
system.cpu.iq.fu_full::SimdAesMix                   0                       # attempts to use FU when none available
system.cpu.iq.fu_full::SimdSha1Hash                 0                       # attempts to use FU when none available
system.cpu.iq.fu_full::SimdSha1Hash2                0                       # attempts to use FU when none available
system.cpu.iq.fu_full::SimdSha256Hash               0                       # attempts to use FU when none available
system.cpu.iq.fu_full::SimdSha256Hash2              0                       # attempts to use FU when none available
system.cpu.iq.fu_full::SimdShaSigma2                0                       # attempts to use FU when none available
system.cpu.iq.fu_full::SimdShaSigma3                0                       # attempts to use FU when none available
system.cpu.iq.fu_full::SimdPredAlu                  0                       # attempts to use FU when none available
system.cpu.iq.fu_full::MemRead                      0                       # attempts to use FU when none available
system.cpu.iq.fu_full::MemWrite                     0                       # attempts to use FU when none available
system.cpu.iq.fu_full::FloatMemRead                 0                       # attempts to use FU when none available
system.cpu.iq.fu_full::FloatMemWrite                0                       # attempts to use FU when none available
system.cpu.iq.fu_full::IprAccess                    0                       # attempts to use FU when none available
system.cpu.iq.fu_full::InstPrefetch                 0                       # attempts to use FU when none available
system.cpu.iq.int_alu_accesses                3958931                       # Number of integer alu accesses
system.cpu.iq.int_inst_queue_reads           10514701                       # Number of integer instruction queue reads
system.cpu.iq.int_inst_queue_wakeup_accesses      3933642                       # Number of integer instruction queue wakeup accesses
system.cpu.iq.int_inst_queue_writes           5127085                       # Number of integer instruction queue writes
system.cpu.iq.iqInstsAdded                    4389584                       # Number of instructions added to the IQ (excludes non-spec)
system.cpu.iq.iqInstsIssued                   4075937                       # Number of instructions issued
system.cpu.iq.iqNonSpecInstsAdded                1078                       # Number of non-speculative instructions added to the IQ
system.cpu.iq.iqSquashedInstsExamined          868412                       # Number of squashed instructions iterated over during squash; mainly for profiling
system.cpu.iq.iqSquashedInstsIssued             18519                       # Number of squashed instructions issued
system.cpu.iq.iqSquashedNonSpecRemoved            346                       # Number of squashed non-spec instructions that were removed
system.cpu.iq.iqSquashedOperandsExamined      1293574                       # Number of squashed operands that are examined and possibly removed from graph
system.cpu.iq.issued_per_cycle::samples       2526567                       # Number of insts issued each cycle
system.cpu.iq.issued_per_cycle::mean         1.613231                       # Number of insts issued each cycle
system.cpu.iq.issued_per_cycle::stdev        1.673026                       # Number of insts issued each cycle
system.cpu.iq.issued_per_cycle::underflows            0      0.00%      0.00% # Number of insts issued each cycle
system.cpu.iq.issued_per_cycle::0             1154781     45.71%     45.71% # Number of insts issued each cycle
system.cpu.iq.issued_per_cycle::1              165601      6.55%     52.26% # Number of insts issued each cycle
system.cpu.iq.issued_per_cycle::2              291797     11.55%     63.81% # Number of insts issued each cycle
system.cpu.iq.issued_per_cycle::3              330810     13.09%     76.90% # Number of insts issued each cycle
system.cpu.iq.issued_per_cycle::4              583578     23.10%    100.00% # Number of insts issued each cycle
system.cpu.iq.issued_per_cycle::overflows            0      0.00%    100.00% # Number of insts issued each cycle
system.cpu.iq.issued_per_cycle::min_value            0                       # Number of insts issued each cycle
system.cpu.iq.issued_per_cycle::max_value            4                       # Number of insts issued each cycle
system.cpu.iq.issued_per_cycle::total         2526567                       # Number of insts issued each cycle
system.cpu.iq.rate                           1.523752                       # Inst issue rate
system.cpu.iq.vec_alu_accesses                      0                       # Number of vector alu accesses
system.cpu.iq.vec_inst_queue_reads                  0                       # Number of vector instruction queue reads
system.cpu.iq.vec_inst_queue_wakeup_accesses            0                       # Number of vector instruction queue wakeup accesses
system.cpu.iq.vec_inst_queue_writes                 0                       # Number of vector instruction queue writes
system.cpu.itb.rdAccesses                           0                       # TLB accesses on read requests
system.cpu.itb.rdMisses                             0                       # TLB misses on read requests
system.cpu.itb.wrAccesses                      234207                       # TLB accesses on write requests
system.cpu.itb.wrMisses                           366                       # TLB misses on write requests
system.cpu.memDep0.conflictingLoads             10469                       # Number of conflicting loads.
system.cpu.memDep0.conflictingStores             3693                       # Number of conflicting stores.
system.cpu.memDep0.insertedLoads               597524                       # Number of loads inserted to the mem dependence unit.
system.cpu.memDep0.insertedStores              196710                       # Number of stores inserted to the mem dependence unit.
system.cpu.misc_regfile_reads                 1525133                       # number of misc regfile reads
system.cpu.misc_regfile_writes                    675                       # number of misc regfile writes
system.cpu.numCycles                          2674934                       # number of cpu cycles simulated
system.cpu.numWorkItemsCompleted                    0                       # number of work items this cpu completed
system.cpu.numWorkItemsStarted                      0                       # number of work items this cpu started
system.cpu.process.numSyscalls                     56                       # Number of system calls
system.cpu.rename.BlockCycles                  833645                       # Number of cycles rename is blocking
system.cpu.rename.CommittedMaps               4827564                       # Number of HB maps that are committed
system.cpu.rename.FullRegisterEvents              116                       # Number of times there has been no free registers
system.cpu.rename.IQFullEvents                  42607                       # Number of times rename has blocked due to IQ full
system.cpu.rename.IdleCycles                   333394                       # Number of cycles rename is idle
system.cpu.rename.LQFullEvents                  15781                       # Number of times rename has blocked due to LQ full
system.cpu.rename.ROBFullEvents                  4047                       # Number of times rename has blocked due to ROB full
system.cpu.rename.RenameLookups              11835505                       # Number of register rename lookups that rename has made
system.cpu.rename.RenamedInsts                4529381                       # Number of instructions processed by rename
system.cpu.rename.RenamedOperands             6194331                       # Number of destination operands rename has renamed
system.cpu.rename.RunCycles                   1147679                       # Number of cycles rename is running
system.cpu.rename.SQFullEvents                  73094                       # Number of times rename has blocked due to SQ full
system.cpu.rename.SquashCycles                  23940                       # Number of cycles rename is squashing
system.cpu.rename.UnblockCycles                168308                       # Number of cycles rename is unblocking
system.cpu.rename.UndoneMaps                  1366744                       # Number of HB maps that are undone due to squashing
system.cpu.rename.fp_rename_lookups            156200                       # Number of floating rename lookups
system.cpu.rename.int_rename_lookups          7185958                       # Number of integer rename lookups
system.cpu.rename.serializeStallCycles          19601                       # count of cycles rename stalled for serializing inst
system.cpu.rename.serializingInsts                865                       # count of serializing insts renamed
system.cpu.rename.skidInsts                    198355                       # count of insts added to the skid buffer
system.cpu.rename.tempSerializingInsts            915                       # count of temporary serializing insts renamed
system.cpu.rob.rob_reads                      6094017                       # The number of ROB reads
system.cpu.rob.rob_writes                     9019383                       # The number of ROB writes
system.cpu.timesIdled                            1508                       # Number of times that the entire CPU went into an idle state and unscheduled itself
system.l2bus.snoop_filter.hit_multi_requests           11                       # Number of requests hitting in the snoop filter with multiple (>1) holders of the requested data.
system.l2bus.snoop_filter.hit_multi_snoops            0                       # Number of snoops hitting in the snoop filter with multiple (>1) holders of the requested data.
system.l2bus.snoop_filter.hit_single_requests        18197                       # Number of requests hitting in the snoop filter with a single holder of the requested data.
system.l2bus.snoop_filter.hit_single_snoops          419                       # Number of snoops hitting in the snoop filter with a single holder of the requested data.
system.l2bus.snoop_filter.tot_requests          37674                       # Total number of requests made to the snoop filter.
system.l2bus.snoop_filter.tot_snoops              419                       # Total number of snoops made to the snoop filter.
system.l2cache.prefetcher.num_hwpf_issued          648                       # number of hwpf issued
system.l2cache.prefetcher.pfBufferHit               0                       # number of redundant prefetches already in prefetch queue
system.l2cache.prefetcher.pfIdentified            648                       # number of prefetch candidates identified
system.l2cache.prefetcher.pfInCache                 0                       # number of redundant prefetches already in cache/mshr dropped
system.l2cache.prefetcher.pfRemovedFull             0                       # number of prefetches dropped due to prefetch queue size
system.l2cache.prefetcher.pfSpanPage              100                       # number of prefetches that crossed the page
system.membus.snoop_filter.hit_multi_requests            0                       # Number of requests hitting in the snoop filter with multiple (>1) holders of the requested data.
system.membus.snoop_filter.hit_multi_snoops            0                       # Number of snoops hitting in the snoop filter with multiple (>1) holders of the requested data.
system.membus.snoop_filter.hit_single_requests         9194                       # Number of requests hitting in the snoop filter with a single holder of the requested data.
system.membus.snoop_filter.hit_single_snoops            0                       # Number of snoops hitting in the snoop filter with a single holder of the requested data.
system.membus.snoop_filter.tot_requests         22511                       # Total number of requests made to the snoop filter.
system.membus.snoop_filter.tot_snoops               0                       # Total number of snoops made to the snoop filter.
system.membus.pwrStateResidencyTicks::UNDEFINED   1069973200                       # Cumulative time (in ticks) in various power states
system.membus.trans_dist::ReadResp              12026                       # Transaction distribution
system.membus.trans_dist::WritebackDirty         1339                       # Transaction distribution
system.membus.trans_dist::CleanEvict             7855                       # Transaction distribution
system.membus.trans_dist::ReadExReq              1291                       # Transaction distribution
system.membus.trans_dist::ReadExResp             1291                       # Transaction distribution
system.membus.trans_dist::ReadSharedReq         12026                       # Transaction distribution
system.membus.pkt_count_system.l2cache.mem_side::system.mem_ctrl.port        35828                       # Packet count per connected master and slave (bytes)
system.membus.pkt_count_system.l2cache.mem_side::total        35828                       # Packet count per connected master and slave (bytes)
system.membus.pkt_count::total                  35828                       # Packet count per connected master and slave (bytes)
system.membus.pkt_size_system.l2cache.mem_side::system.mem_ctrl.port       937984                       # Cumulative packet size per connected master and slave (bytes)
system.membus.pkt_size_system.l2cache.mem_side::total       937984                       # Cumulative packet size per connected master and slave (bytes)
system.membus.pkt_size::total                  937984                       # Cumulative packet size per connected master and slave (bytes)
system.membus.snoops                                0                       # Total snoops (count)
system.membus.snoopTraffic                          0                       # Total snoop traffic (bytes)
system.membus.snoop_fanout::samples             13317                       # Request fanout histogram
system.membus.snoop_fanout::mean                    0                       # Request fanout histogram
system.membus.snoop_fanout::stdev                   0                       # Request fanout histogram
system.membus.snoop_fanout::underflows              0      0.00%      0.00% # Request fanout histogram
system.membus.snoop_fanout::0                   13317    100.00%    100.00% # Request fanout histogram
system.membus.snoop_fanout::1                       0      0.00%    100.00% # Request fanout histogram
system.membus.snoop_fanout::overflows               0      0.00%    100.00% # Request fanout histogram
system.membus.snoop_fanout::min_value               0                       # Request fanout histogram
system.membus.snoop_fanout::max_value               0                       # Request fanout histogram
system.membus.snoop_fanout::total               13317                       # Request fanout histogram
system.membus.reqLayer2.occupancy            11168656                       # Layer occupancy (ticks)
system.membus.reqLayer2.utilization               1.0                       # Layer utilization (%)
system.membus.respLayer0.occupancy           28902144                       # Layer occupancy (ticks)
system.membus.respLayer0.utilization              2.7                       # Layer utilization (%)
system.l2bus.pwrStateResidencyTicks::UNDEFINED   1069973200                       # Cumulative time (in ticks) in various power states
system.l2bus.trans_dist::ReadResp               17448                       # Transaction distribution
system.l2bus.trans_dist::WritebackDirty          4067                       # Transaction distribution
system.l2bus.trans_dist::CleanEvict             23409                       # Transaction distribution
system.l2bus.trans_dist::HardPFReq                923                       # Transaction distribution
system.l2bus.trans_dist::ReadExReq               2029                       # Transaction distribution
system.l2bus.trans_dist::ReadExResp              2029                       # Transaction distribution
system.l2bus.trans_dist::ReadSharedReq          17448                       # Transaction distribution
system.l2bus.pkt_count_system.cpu.icache.mem_side::system.l2cache.cpu_side         7694                       # Packet count per connected master and slave (bytes)
system.l2bus.pkt_count_system.cpu.dcache.mem_side::system.l2cache.cpu_side        49454                       # Packet count per connected master and slave (bytes)
system.l2bus.pkt_count::total                   57148                       # Packet count per connected master and slave (bytes)
system.l2bus.pkt_size_system.cpu.icache.mem_side::system.l2cache.cpu_side       169472                       # Cumulative packet size per connected master and slave (bytes)
system.l2bus.pkt_size_system.cpu.dcache.mem_side::system.l2cache.cpu_side      1251456                       # Cumulative packet size per connected master and slave (bytes)
system.l2bus.pkt_size::total                  1420928                       # Cumulative packet size per connected master and slave (bytes)
system.l2bus.snoops                             10205                       # Total snoops (count)
system.l2bus.snoopTraffic                       85888                       # Total snoop traffic (bytes)
system.l2bus.snoop_fanout::samples              29679                       # Request fanout histogram
system.l2bus.snoop_fanout::mean              0.014488                       # Request fanout histogram
system.l2bus.snoop_fanout::stdev             0.119494                       # Request fanout histogram
system.l2bus.snoop_fanout::underflows               0      0.00%      0.00% # Request fanout histogram
system.l2bus.snoop_fanout::0                    29249     98.55%     98.55% # Request fanout histogram
system.l2bus.snoop_fanout::1                      430      1.45%    100.00% # Request fanout histogram
system.l2bus.snoop_fanout::2                        0      0.00%    100.00% # Request fanout histogram
system.l2bus.snoop_fanout::overflows                0      0.00%    100.00% # Request fanout histogram
system.l2bus.snoop_fanout::min_value                0                       # Request fanout histogram
system.l2bus.snoop_fanout::max_value                1                       # Request fanout histogram
system.l2bus.snoop_fanout::total                29679                       # Request fanout histogram
system.l2bus.respLayer1.occupancy            20191599                       # Layer occupancy (ticks)
system.l2bus.respLayer1.utilization               1.9                       # Layer utilization (%)
system.l2bus.reqLayer0.occupancy             18689847                       # Layer occupancy (ticks)
system.l2bus.reqLayer0.utilization                1.7                       # Layer utilization (%)
system.l2bus.respLayer0.occupancy             3182796                       # Layer occupancy (ticks)
system.l2bus.respLayer0.utilization               0.3                       # Layer utilization (%)
system.clk_domain.clock                           400                       # Clock period in ticks
system.clk_domain.voltage_domain.voltage            1                       # Voltage in Volts
system.cpu.pwrStateResidencyTicks::ON      1069973200                       # Cumulative time (in ticks) in various power states
system.cpu.icache.pwrStateResidencyTicks::UNDEFINED   1069973200                       # Cumulative time (in ticks) in various power states
system.cpu.icache.demand_hits::.cpu.inst       230737                       # number of demand (read+write) hits
system.cpu.icache.demand_hits::total           230737                       # number of demand (read+write) hits
system.cpu.icache.overall_hits::.cpu.inst       230737                       # number of overall hits
system.cpu.icache.overall_hits::total          230737                       # number of overall hits
system.cpu.icache.demand_misses::.cpu.inst         3344                       # number of demand (read+write) misses
system.cpu.icache.demand_misses::total           3344                       # number of demand (read+write) misses
system.cpu.icache.overall_misses::.cpu.inst         3344                       # number of overall misses
system.cpu.icache.overall_misses::total          3344                       # number of overall misses
system.cpu.icache.demand_miss_latency::.cpu.inst    165160399                       # number of demand (read+write) miss cycles
system.cpu.icache.demand_miss_latency::total    165160399                       # number of demand (read+write) miss cycles
system.cpu.icache.overall_miss_latency::.cpu.inst    165160399                       # number of overall miss cycles
system.cpu.icache.overall_miss_latency::total    165160399                       # number of overall miss cycles
system.cpu.icache.demand_accesses::.cpu.inst       234081                       # number of demand (read+write) accesses
system.cpu.icache.demand_accesses::total       234081                       # number of demand (read+write) accesses
system.cpu.icache.overall_accesses::.cpu.inst       234081                       # number of overall (read+write) accesses
system.cpu.icache.overall_accesses::total       234081                       # number of overall (read+write) accesses
system.cpu.icache.demand_miss_rate::.cpu.inst     0.014286                       # miss rate for demand accesses
system.cpu.icache.demand_miss_rate::total     0.014286                       # miss rate for demand accesses
system.cpu.icache.overall_miss_rate::.cpu.inst     0.014286                       # miss rate for overall accesses
system.cpu.icache.overall_miss_rate::total     0.014286                       # miss rate for overall accesses
system.cpu.icache.demand_avg_miss_latency::.cpu.inst 49390.071471                       # average overall miss latency
system.cpu.icache.demand_avg_miss_latency::total 49390.071471                       # average overall miss latency
system.cpu.icache.overall_avg_miss_latency::.cpu.inst 49390.071471                       # average overall miss latency
system.cpu.icache.overall_avg_miss_latency::total 49390.071471                       # average overall miss latency
system.cpu.icache.blocked_cycles::no_mshrs          272                       # number of cycles access was blocked
system.cpu.icache.blocked_cycles::no_targets            0                       # number of cycles access was blocked
system.cpu.icache.blocked::no_mshrs                 4                       # number of cycles access was blocked
system.cpu.icache.blocked::no_targets               0                       # number of cycles access was blocked
system.cpu.icache.avg_blocked_cycles::no_mshrs           68                       # average number of cycles each access was blocked
system.cpu.icache.avg_blocked_cycles::no_targets          nan                       # average number of cycles each access was blocked
system.cpu.icache.demand_mshr_hits::.cpu.inst          692                       # number of demand (read+write) MSHR hits
system.cpu.icache.demand_mshr_hits::total          692                       # number of demand (read+write) MSHR hits
system.cpu.icache.overall_mshr_hits::.cpu.inst          692                       # number of overall MSHR hits
system.cpu.icache.overall_mshr_hits::total          692                       # number of overall MSHR hits
system.cpu.icache.demand_mshr_misses::.cpu.inst         2652                       # number of demand (read+write) MSHR misses
system.cpu.icache.demand_mshr_misses::total         2652                       # number of demand (read+write) MSHR misses
system.cpu.icache.overall_mshr_misses::.cpu.inst         2652                       # number of overall MSHR misses
system.cpu.icache.overall_mshr_misses::total         2652                       # number of overall MSHR misses
system.cpu.icache.demand_mshr_miss_latency::.cpu.inst    131655999                       # number of demand (read+write) MSHR miss cycles
system.cpu.icache.demand_mshr_miss_latency::total    131655999                       # number of demand (read+write) MSHR miss cycles
system.cpu.icache.overall_mshr_miss_latency::.cpu.inst    131655999                       # number of overall MSHR miss cycles
system.cpu.icache.overall_mshr_miss_latency::total    131655999                       # number of overall MSHR miss cycles
system.cpu.icache.demand_mshr_miss_rate::.cpu.inst     0.011329                       # mshr miss rate for demand accesses
system.cpu.icache.demand_mshr_miss_rate::total     0.011329                       # mshr miss rate for demand accesses
system.cpu.icache.overall_mshr_miss_rate::.cpu.inst     0.011329                       # mshr miss rate for overall accesses
system.cpu.icache.overall_mshr_miss_rate::total     0.011329                       # mshr miss rate for overall accesses
system.cpu.icache.demand_avg_mshr_miss_latency::.cpu.inst 49644.041855                       # average overall mshr miss latency
system.cpu.icache.demand_avg_mshr_miss_latency::total 49644.041855                       # average overall mshr miss latency
system.cpu.icache.overall_avg_mshr_miss_latency::.cpu.inst 49644.041855                       # average overall mshr miss latency
system.cpu.icache.overall_avg_mshr_miss_latency::total 49644.041855                       # average overall mshr miss latency
system.cpu.icache.replacements                   2395                       # number of replacements
system.cpu.icache.ReadReq_hits::.cpu.inst       230737                       # number of ReadReq hits
system.cpu.icache.ReadReq_hits::total          230737                       # number of ReadReq hits
system.cpu.icache.ReadReq_misses::.cpu.inst         3344                       # number of ReadReq misses
system.cpu.icache.ReadReq_misses::total          3344                       # number of ReadReq misses
system.cpu.icache.ReadReq_miss_latency::.cpu.inst    165160399                       # number of ReadReq miss cycles
system.cpu.icache.ReadReq_miss_latency::total    165160399                       # number of ReadReq miss cycles
system.cpu.icache.ReadReq_accesses::.cpu.inst       234081                       # number of ReadReq accesses(hits+misses)
system.cpu.icache.ReadReq_accesses::total       234081                       # number of ReadReq accesses(hits+misses)
system.cpu.icache.ReadReq_miss_rate::.cpu.inst     0.014286                       # miss rate for ReadReq accesses
system.cpu.icache.ReadReq_miss_rate::total     0.014286                       # miss rate for ReadReq accesses
system.cpu.icache.ReadReq_avg_miss_latency::.cpu.inst 49390.071471                       # average ReadReq miss latency
system.cpu.icache.ReadReq_avg_miss_latency::total 49390.071471                       # average ReadReq miss latency
system.cpu.icache.ReadReq_mshr_hits::.cpu.inst          692                       # number of ReadReq MSHR hits
system.cpu.icache.ReadReq_mshr_hits::total          692                       # number of ReadReq MSHR hits
system.cpu.icache.ReadReq_mshr_misses::.cpu.inst         2652                       # number of ReadReq MSHR misses
system.cpu.icache.ReadReq_mshr_misses::total         2652                       # number of ReadReq MSHR misses
system.cpu.icache.ReadReq_mshr_miss_latency::.cpu.inst    131655999                       # number of ReadReq MSHR miss cycles
system.cpu.icache.ReadReq_mshr_miss_latency::total    131655999                       # number of ReadReq MSHR miss cycles
system.cpu.icache.ReadReq_mshr_miss_rate::.cpu.inst     0.011329                       # mshr miss rate for ReadReq accesses
system.cpu.icache.ReadReq_mshr_miss_rate::total     0.011329                       # mshr miss rate for ReadReq accesses
system.cpu.icache.ReadReq_avg_mshr_miss_latency::.cpu.inst 49644.041855                       # average ReadReq mshr miss latency
system.cpu.icache.ReadReq_avg_mshr_miss_latency::total 49644.041855                       # average ReadReq mshr miss latency
system.cpu.icache.prefetcher.pwrStateResidencyTicks::UNDEFINED   1069973200                       # Cumulative time (in ticks) in various power states
system.cpu.icache.tags.pwrStateResidencyTicks::UNDEFINED   1069973200                       # Cumulative time (in ticks) in various power states
system.cpu.icache.tags.tagsinuse           253.481457                       # Cycle average of tags in use
system.cpu.icache.tags.total_refs              203380                       # Total number of references to valid blocks.
system.cpu.icache.tags.sampled_refs              2395                       # Sample count of references to valid blocks.
system.cpu.icache.tags.avg_refs             84.918580                       # Average number of references to valid blocks.
system.cpu.icache.tags.warmup_cycle             66400                       # Cycle when the warmup percentage was hit.
system.cpu.icache.tags.occ_blocks::.cpu.inst   253.481457                       # Average occupied blocks per requestor
system.cpu.icache.tags.occ_percent::.cpu.inst     0.990162                       # Average percentage of cache occupancy
system.cpu.icache.tags.occ_percent::total     0.990162                       # Average percentage of cache occupancy
system.cpu.icache.tags.occ_task_id_blocks::1024          256                       # Occupied blocks per task id
system.cpu.icache.tags.age_task_id_blocks_1024::0          115                       # Occupied blocks per task id
system.cpu.icache.tags.age_task_id_blocks_1024::1          121                       # Occupied blocks per task id
system.cpu.icache.tags.age_task_id_blocks_1024::2           19                       # Occupied blocks per task id
system.cpu.icache.tags.age_task_id_blocks_1024::3            1                       # Occupied blocks per task id
system.cpu.icache.tags.occ_task_id_percent::1024            1                       # Percentage of cache occupancy per task id
system.cpu.icache.tags.tag_accesses            470813                       # Number of tag accesses
system.cpu.icache.tags.data_accesses           470813                       # Number of data accesses
system.cpu.dtb.walker.pwrStateResidencyTicks::UNDEFINED   1069973200                       # Cumulative time (in ticks) in various power states
system.cpu.interrupts.clk_domain.clock           6400                       # Clock period in ticks
system.cpu.itb.walker.pwrStateResidencyTicks::UNDEFINED   1069973200                       # Cumulative time (in ticks) in various power states
system.cpu.dcache.pwrStateResidencyTicks::UNDEFINED   1069973200                       # Cumulative time (in ticks) in various power states
system.cpu.dcache.demand_hits::.cpu.data       658297                       # number of demand (read+write) hits
system.cpu.dcache.demand_hits::total           658297                       # number of demand (read+write) hits
system.cpu.dcache.overall_hits::.cpu.data       658297                       # number of overall hits
system.cpu.dcache.overall_hits::total          658297                       # number of overall hits
system.cpu.dcache.demand_misses::.cpu.data        34707                       # number of demand (read+write) misses
system.cpu.dcache.demand_misses::total          34707                       # number of demand (read+write) misses
system.cpu.dcache.overall_misses::.cpu.data        34707                       # number of overall misses
system.cpu.dcache.overall_misses::total         34707                       # number of overall misses
system.cpu.dcache.demand_miss_latency::.cpu.data   1688440798                       # number of demand (read+write) miss cycles
system.cpu.dcache.demand_miss_latency::total   1688440798                       # number of demand (read+write) miss cycles
system.cpu.dcache.overall_miss_latency::.cpu.data   1688440798                       # number of overall miss cycles
system.cpu.dcache.overall_miss_latency::total   1688440798                       # number of overall miss cycles
system.cpu.dcache.demand_accesses::.cpu.data       693004                       # number of demand (read+write) accesses
system.cpu.dcache.demand_accesses::total       693004                       # number of demand (read+write) accesses
system.cpu.dcache.overall_accesses::.cpu.data       693004                       # number of overall (read+write) accesses
system.cpu.dcache.overall_accesses::total       693004                       # number of overall (read+write) accesses
system.cpu.dcache.demand_miss_rate::.cpu.data     0.050082                       # miss rate for demand accesses
system.cpu.dcache.demand_miss_rate::total     0.050082                       # miss rate for demand accesses
system.cpu.dcache.overall_miss_rate::.cpu.data     0.050082                       # miss rate for overall accesses
system.cpu.dcache.overall_miss_rate::total     0.050082                       # miss rate for overall accesses
system.cpu.dcache.demand_avg_miss_latency::.cpu.data 48648.422451                       # average overall miss latency
system.cpu.dcache.demand_avg_miss_latency::total 48648.422451                       # average overall miss latency
system.cpu.dcache.overall_avg_miss_latency::.cpu.data 48648.422451                       # average overall miss latency
system.cpu.dcache.overall_avg_miss_latency::total 48648.422451                       # average overall miss latency
system.cpu.dcache.blocked_cycles::no_mshrs        28990                       # number of cycles access was blocked
system.cpu.dcache.blocked_cycles::no_targets          129                       # number of cycles access was blocked
system.cpu.dcache.blocked::no_mshrs               763                       # number of cycles access was blocked
system.cpu.dcache.blocked::no_targets               2                       # number of cycles access was blocked
system.cpu.dcache.avg_blocked_cycles::no_mshrs    37.994758                       # average number of cycles each access was blocked
system.cpu.dcache.avg_blocked_cycles::no_targets    64.500000                       # average number of cycles each access was blocked
system.cpu.dcache.unused_prefetches              1807                       # number of HardPF blocks evicted w/o reference
system.cpu.dcache.writebacks::.writebacks         2728                       # number of writebacks
system.cpu.dcache.writebacks::total              2728                       # number of writebacks
system.cpu.dcache.demand_mshr_hits::.cpu.data        22257                       # number of demand (read+write) MSHR hits
system.cpu.dcache.demand_mshr_hits::total        22257                       # number of demand (read+write) MSHR hits
system.cpu.dcache.overall_mshr_hits::.cpu.data        22257                       # number of overall MSHR hits
system.cpu.dcache.overall_mshr_hits::total        22257                       # number of overall MSHR hits
system.cpu.dcache.demand_mshr_misses::.cpu.data        12450                       # number of demand (read+write) MSHR misses
system.cpu.dcache.demand_mshr_misses::total        12450                       # number of demand (read+write) MSHR misses
system.cpu.dcache.overall_mshr_misses::.cpu.data        12450                       # number of overall MSHR misses
system.cpu.dcache.overall_mshr_misses::.cpu.dcache.prefetcher         4376                       # number of overall MSHR misses
system.cpu.dcache.overall_mshr_misses::total        16826                       # number of overall MSHR misses
system.cpu.dcache.demand_mshr_miss_latency::.cpu.data    570899198                       # number of demand (read+write) MSHR miss cycles
system.cpu.dcache.demand_mshr_miss_latency::total    570899198                       # number of demand (read+write) MSHR miss cycles
system.cpu.dcache.overall_mshr_miss_latency::.cpu.data    570899198                       # number of overall MSHR miss cycles
system.cpu.dcache.overall_mshr_miss_latency::.cpu.dcache.prefetcher    253568912                       # number of overall MSHR miss cycles
system.cpu.dcache.overall_mshr_miss_latency::total    824468110                       # number of overall MSHR miss cycles
system.cpu.dcache.demand_mshr_miss_rate::.cpu.data     0.017965                       # mshr miss rate for demand accesses
system.cpu.dcache.demand_mshr_miss_rate::total     0.017965                       # mshr miss rate for demand accesses
system.cpu.dcache.overall_mshr_miss_rate::.cpu.data     0.017965                       # mshr miss rate for overall accesses
system.cpu.dcache.overall_mshr_miss_rate::.cpu.dcache.prefetcher          inf                       # mshr miss rate for overall accesses
system.cpu.dcache.overall_mshr_miss_rate::total     0.024280                       # mshr miss rate for overall accesses
system.cpu.dcache.demand_avg_mshr_miss_latency::.cpu.data 45855.357269                       # average overall mshr miss latency
system.cpu.dcache.demand_avg_mshr_miss_latency::total 45855.357269                       # average overall mshr miss latency
system.cpu.dcache.overall_avg_mshr_miss_latency::.cpu.data 45855.357269                       # average overall mshr miss latency
system.cpu.dcache.overall_avg_mshr_miss_latency::.cpu.dcache.prefetcher 57945.363803                       # average overall mshr miss latency
system.cpu.dcache.overall_avg_mshr_miss_latency::total 48999.649947                       # average overall mshr miss latency
system.cpu.dcache.replacements                  15802                       # number of replacements
system.cpu.dcache.ReadReq_hits::.cpu.data       492929                       # number of ReadReq hits
system.cpu.dcache.ReadReq_hits::total          492929                       # number of ReadReq hits
system.cpu.dcache.ReadReq_misses::.cpu.data        32637                       # number of ReadReq misses
system.cpu.dcache.ReadReq_misses::total         32637                       # number of ReadReq misses
system.cpu.dcache.ReadReq_miss_latency::.cpu.data   1586418000                       # number of ReadReq miss cycles
system.cpu.dcache.ReadReq_miss_latency::total   1586418000                       # number of ReadReq miss cycles
system.cpu.dcache.ReadReq_accesses::.cpu.data       525566                       # number of ReadReq accesses(hits+misses)
system.cpu.dcache.ReadReq_accesses::total       525566                       # number of ReadReq accesses(hits+misses)
system.cpu.dcache.ReadReq_miss_rate::.cpu.data     0.062099                       # miss rate for ReadReq accesses
system.cpu.dcache.ReadReq_miss_rate::total     0.062099                       # miss rate for ReadReq accesses
system.cpu.dcache.ReadReq_avg_miss_latency::.cpu.data 48607.960290                       # average ReadReq miss latency
system.cpu.dcache.ReadReq_avg_miss_latency::total 48607.960290                       # average ReadReq miss latency
system.cpu.dcache.ReadReq_mshr_hits::.cpu.data        22215                       # number of ReadReq MSHR hits
system.cpu.dcache.ReadReq_mshr_hits::total        22215                       # number of ReadReq MSHR hits
system.cpu.dcache.ReadReq_mshr_misses::.cpu.data        10422                       # number of ReadReq MSHR misses
system.cpu.dcache.ReadReq_mshr_misses::total        10422                       # number of ReadReq MSHR misses
system.cpu.dcache.ReadReq_mshr_miss_latency::.cpu.data    472472000                       # number of ReadReq MSHR miss cycles
system.cpu.dcache.ReadReq_mshr_miss_latency::total    472472000                       # number of ReadReq MSHR miss cycles
system.cpu.dcache.ReadReq_mshr_miss_rate::.cpu.data     0.019830                       # mshr miss rate for ReadReq accesses
system.cpu.dcache.ReadReq_mshr_miss_rate::total     0.019830                       # mshr miss rate for ReadReq accesses
system.cpu.dcache.ReadReq_avg_mshr_miss_latency::.cpu.data 45334.100940                       # average ReadReq mshr miss latency
system.cpu.dcache.ReadReq_avg_mshr_miss_latency::total 45334.100940                       # average ReadReq mshr miss latency
system.cpu.dcache.WriteReq_hits::.cpu.data       165368                       # number of WriteReq hits
system.cpu.dcache.WriteReq_hits::total         165368                       # number of WriteReq hits
system.cpu.dcache.WriteReq_misses::.cpu.data         2070                       # number of WriteReq misses
system.cpu.dcache.WriteReq_misses::total         2070                       # number of WriteReq misses
system.cpu.dcache.WriteReq_miss_latency::.cpu.data    102022798                       # number of WriteReq miss cycles
system.cpu.dcache.WriteReq_miss_latency::total    102022798                       # number of WriteReq miss cycles
system.cpu.dcache.WriteReq_accesses::.cpu.data       167438                       # number of WriteReq accesses(hits+misses)
system.cpu.dcache.WriteReq_accesses::total       167438                       # number of WriteReq accesses(hits+misses)
system.cpu.dcache.WriteReq_miss_rate::.cpu.data     0.012363                       # miss rate for WriteReq accesses
system.cpu.dcache.WriteReq_miss_rate::total     0.012363                       # miss rate for WriteReq accesses
system.cpu.dcache.WriteReq_avg_miss_latency::.cpu.data 49286.375845                       # average WriteReq miss latency
system.cpu.dcache.WriteReq_avg_miss_latency::total 49286.375845                       # average WriteReq miss latency
system.cpu.dcache.WriteReq_mshr_hits::.cpu.data           42                       # number of WriteReq MSHR hits
system.cpu.dcache.WriteReq_mshr_hits::total           42                       # number of WriteReq MSHR hits
system.cpu.dcache.WriteReq_mshr_misses::.cpu.data         2028                       # number of WriteReq MSHR misses
system.cpu.dcache.WriteReq_mshr_misses::total         2028                       # number of WriteReq MSHR misses
[...]
system.l2cache.demand_mshr_miss_rate::.cpu.data     0.568905                       # mshr miss rate for demand accesses
system.l2cache.demand_mshr_miss_rate::.cpu.dcache.prefetcher     0.739130                       # mshr miss rate for demand accesses
system.l2cache.demand_mshr_miss_rate::total     0.541744                       # mshr miss rate for demand accesses
system.l2cache.overall_mshr_miss_rate::.cpu.inst     0.519359                       # mshr miss rate for overall accesses
system.l2cache.overall_mshr_miss_rate::.cpu.data     0.568905                       # mshr miss rate for overall accesses
system.l2cache.overall_mshr_miss_rate::.cpu.dcache.prefetcher     0.739130                       # mshr miss rate for overall accesses
system.l2cache.overall_mshr_miss_rate::.l2cache.prefetcher          inf                       # mshr miss rate for overall accesses
system.l2cache.overall_mshr_miss_rate::total     0.544527                       # mshr miss rate for overall accesses
system.l2cache.demand_avg_mshr_miss_latency::.cpu.inst 59097.172237                       # average overall mshr miss latency
system.l2cache.demand_avg_mshr_miss_latency::.cpu.data 59952.795031                       # average overall mshr miss latency
system.l2cache.demand_avg_mshr_miss_latency::.cpu.dcache.prefetcher 58469.558824                       # average overall mshr miss latency
system.l2cache.demand_avg_mshr_miss_latency::total 59296.515411                       # average overall mshr miss latency
system.l2cache.overall_avg_mshr_miss_latency::.cpu.inst 59097.172237                       # average overall mshr miss latency
system.l2cache.overall_avg_mshr_miss_latency::.cpu.data 59952.795031                       # average overall mshr miss latency
system.l2cache.overall_avg_mshr_miss_latency::.cpu.dcache.prefetcher 58469.558824                       # average overall mshr miss latency
system.l2cache.overall_avg_mshr_miss_latency::.l2cache.prefetcher        59332                       # average overall mshr miss latency
system.l2cache.overall_avg_mshr_miss_latency::total 59296.696763                       # average overall mshr miss latency
system.l2cache.replacements                       593                       # number of replacements
system.l2cache.WritebackDirty_hits::.writebacks           65                       # number of WritebackDirty hits
system.l2cache.WritebackDirty_hits::total           65                       # number of WritebackDirty hits
system.l2cache.WritebackDirty_accesses::.writebacks           65                       # number of WritebackDirty accesses(hits+misses)
system.l2cache.WritebackDirty_accesses::total           65                       # number of WritebackDirty accesses(hits+misses)
system.l2cache.CleanEvict_mshr_misses::.writebacks           21                       # number of CleanEvict MSHR misses
system.l2cache.CleanEvict_mshr_misses::total           21                       # number of CleanEvict MSHR misses
system.l2cache.CleanEvict_mshr_miss_rate::.writebacks          inf                       # mshr miss rate for CleanEvict accesses
system.l2cache.CleanEvict_mshr_miss_rate::total          inf                       # mshr miss rate for CleanEvict accesses
system.l2cache.HardPFReq_mshr_misses::.l2cache.prefetcher            3                       # number of HardPFReq MSHR misses
system.l2cache.HardPFReq_mshr_misses::total            3                       # number of HardPFReq MSHR misses
system.l2cache.HardPFReq_mshr_miss_latency::.l2cache.prefetcher       177996                       # number of HardPFReq MSHR miss cycles
system.l2cache.HardPFReq_mshr_miss_latency::total       177996                       # number of HardPFReq MSHR miss cycles
system.l2cache.HardPFReq_mshr_miss_rate::.l2cache.prefetcher          inf                       # mshr miss rate for HardPFReq accesses
system.l2cache.HardPFReq_mshr_miss_rate::total          inf                       # mshr miss rate for HardPFReq accesses
system.l2cache.HardPFReq_avg_mshr_miss_latency::.l2cache.prefetcher        59332                       # average HardPFReq mshr miss latency
system.l2cache.HardPFReq_avg_mshr_miss_latency::total        59332                       # average HardPFReq mshr miss latency
system.l2cache.ReadExReq_hits::.cpu.data            4                       # number of ReadExReq hits
system.l2cache.ReadExReq_hits::total                4                       # number of ReadExReq hits
system.l2cache.ReadExReq_misses::.cpu.data           22                       # number of ReadExReq misses
system.l2cache.ReadExReq_misses::total             22                       # number of ReadExReq misses
system.l2cache.ReadExReq_miss_latency::.cpu.data      1487200                       # number of ReadExReq miss cycles
system.l2cache.ReadExReq_miss_latency::total      1487200                       # number of ReadExReq miss cycles
system.l2cache.ReadExReq_accesses::.cpu.data           26                       # number of ReadExReq accesses(hits+misses)
system.l2cache.ReadExReq_accesses::total           26                       # number of ReadExReq accesses(hits+misses)
system.l2cache.ReadExReq_miss_rate::.cpu.data     0.846154                       # miss rate for ReadExReq accesses
system.l2cache.ReadExReq_miss_rate::total     0.846154                       # miss rate for ReadExReq accesses
system.l2cache.ReadExReq_avg_miss_latency::.cpu.data        67600                       # average ReadExReq miss latency
system.l2cache.ReadExReq_avg_miss_latency::total        67600                       # average ReadExReq miss latency
system.l2cache.ReadExReq_mshr_misses::.cpu.data           22                       # number of ReadExReq MSHR misses
system.l2cache.ReadExReq_mshr_misses::total           22                       # number of ReadExReq MSHR misses
system.l2cache.ReadExReq_mshr_miss_latency::.cpu.data      1311200                       # number of ReadExReq MSHR miss cycles
system.l2cache.ReadExReq_mshr_miss_latency::total      1311200                       # number of ReadExReq MSHR miss cycles
system.l2cache.ReadExReq_mshr_miss_rate::.cpu.data     0.846154                       # mshr miss rate for ReadExReq accesses
system.l2cache.ReadExReq_mshr_miss_rate::total     0.846154                       # mshr miss rate for ReadExReq accesses
system.l2cache.ReadExReq_avg_mshr_miss_latency::.cpu.data        59600                       # average ReadExReq mshr miss latency
system.l2cache.ReadExReq_avg_mshr_miss_latency::total        59600                       # average ReadExReq mshr miss latency
system.l2cache.ReadSharedReq_hits::.cpu.inst          360                       # number of ReadSharedReq hits
system.l2cache.ReadSharedReq_hits::.cpu.data          117                       # number of ReadSharedReq hits
system.l2cache.ReadSharedReq_hits::.cpu.dcache.prefetcher           12                       # number of ReadSharedReq hits
system.l2cache.ReadSharedReq_hits::total          489                       # number of ReadSharedReq hits
system.l2cache.ReadSharedReq_misses::.cpu.inst          389                       # number of ReadSharedReq misses
system.l2cache.ReadSharedReq_misses::.cpu.data          140                       # number of ReadSharedReq misses
system.l2cache.ReadSharedReq_misses::.cpu.dcache.prefetcher           34                       # number of ReadSharedReq misses
system.l2cache.ReadSharedReq_misses::total          563                       # number of ReadSharedReq misses
system.l2cache.ReadSharedReq_miss_latency::.cpu.inst     26092800                       # number of ReadSharedReq miss cycles
system.l2cache.ReadSharedReq_miss_latency::.cpu.data      9509600                       # number of ReadSharedReq miss cycles
system.l2cache.ReadSharedReq_miss_latency::.cpu.dcache.prefetcher      2259965                       # number of ReadSharedReq miss cycles
system.l2cache.ReadSharedReq_miss_latency::total     37862365                       # number of ReadSharedReq miss cycles
system.l2cache.ReadSharedReq_accesses::.cpu.inst          749                       # number of ReadSharedReq accesses(hits+misses)
system.l2cache.ReadSharedReq_accesses::.cpu.data          257                       # number of ReadSharedReq accesses(hits+misses)
system.l2cache.ReadSharedReq_accesses::.cpu.dcache.prefetcher           46                       # number of ReadSharedReq accesses(hits+misses)
system.l2cache.ReadSharedReq_accesses::total         1052                       # number of ReadSharedReq accesses(hits+misses)
system.l2cache.ReadSharedReq_miss_rate::.cpu.inst     0.519359                       # miss rate for ReadSharedReq accesses
system.l2cache.ReadSharedReq_miss_rate::.cpu.data     0.544747                       # miss rate for ReadSharedReq accesses
system.l2cache.ReadSharedReq_miss_rate::.cpu.dcache.prefetcher     0.739130                       # miss rate for ReadSharedReq accesses
system.l2cache.ReadSharedReq_miss_rate::total     0.535171                       # miss rate for ReadSharedReq accesses
system.l2cache.ReadSharedReq_avg_miss_latency::.cpu.inst 67076.606684                       # average ReadSharedReq miss latency
system.l2cache.ReadSharedReq_avg_miss_latency::.cpu.data 67925.714286                       # average ReadSharedReq miss latency
system.l2cache.ReadSharedReq_avg_miss_latency::.cpu.dcache.prefetcher 66469.558824                       # average ReadSharedReq miss latency
system.l2cache.ReadSharedReq_avg_miss_latency::total 67251.092362                       # average ReadSharedReq miss latency
system.l2cache.ReadSharedReq_mshr_hits::.cpu.data            1                       # number of ReadSharedReq MSHR hits
system.l2cache.ReadSharedReq_mshr_hits::total            1                       # number of ReadSharedReq MSHR hits
system.l2cache.ReadSharedReq_mshr_misses::.cpu.inst          389                       # number of ReadSharedReq MSHR misses
system.l2cache.ReadSharedReq_mshr_misses::.cpu.data          139                       # number of ReadSharedReq MSHR misses
system.l2cache.ReadSharedReq_mshr_misses::.cpu.dcache.prefetcher           34                       # number of ReadSharedReq MSHR misses
system.l2cache.ReadSharedReq_mshr_misses::total          562                       # number of ReadSharedReq MSHR misses
system.l2cache.ReadSharedReq_mshr_miss_latency::.cpu.inst     22988800                       # number of ReadSharedReq MSHR miss cycles
system.l2cache.ReadSharedReq_mshr_miss_latency::.cpu.data      8341200                       # number of ReadSharedReq MSHR miss cycles
system.l2cache.ReadSharedReq_mshr_miss_latency::.cpu.dcache.prefetcher      1987965                       # number of ReadSharedReq MSHR miss cycles
system.l2cache.ReadSharedReq_mshr_miss_latency::total     33317965                       # number of ReadSharedReq MSHR miss cycles
system.l2cache.ReadSharedReq_mshr_miss_rate::.cpu.inst     0.519359                       # mshr miss rate for ReadSharedReq accesses
system.l2cache.ReadSharedReq_mshr_miss_rate::.cpu.data     0.540856                       # mshr miss rate for ReadSharedReq accesses
system.l2cache.ReadSharedReq_mshr_miss_rate::.cpu.dcache.prefetcher     0.739130                       # mshr miss rate for ReadSharedReq accesses
system.l2cache.ReadSharedReq_mshr_miss_rate::total     0.534221                       # mshr miss rate for ReadSharedReq accesses
system.l2cache.ReadSharedReq_avg_mshr_miss_latency::.cpu.inst 59097.172237                       # average ReadSharedReq mshr miss latency
system.l2cache.ReadSharedReq_avg_mshr_miss_latency::.cpu.data 60008.633094                       # average ReadSharedReq mshr miss latency
system.l2cache.ReadSharedReq_avg_mshr_miss_latency::.cpu.dcache.prefetcher 58469.558824                       # average ReadSharedReq mshr miss latency
system.l2cache.ReadSharedReq_avg_mshr_miss_latency::total 59284.635231                       # average ReadSharedReq mshr miss latency
system.l2cache.prefetcher.pwrStateResidencyTicks::UNDEFINED     52417200                       # Cumulative time (in ticks) in various power states
system.l2cache.tags.pwrStateResidencyTicks::UNDEFINED     52417200                       # Cumulative time (in ticks) in various power states
system.l2cache.tags.tagsinuse                    4096                       # Cycle average of tags in use
system.l2cache.tags.total_refs                  14686                       # Total number of references to valid blocks.
system.l2cache.tags.sampled_refs                 4689                       # Sample count of references to valid blocks.
system.l2cache.tags.avg_refs                 3.132011                       # Average number of references to valid blocks.
system.l2cache.tags.warmup_cycle                    0                       # Cycle when the warmup percentage was hit.
system.l2cache.tags.occ_blocks::.writebacks    40.814824                       # Average occupied blocks per requestor
system.l2cache.tags.occ_blocks::.cpu.inst  1087.786249                       # Average occupied blocks per requestor
system.l2cache.tags.occ_blocks::.cpu.data  1819.891485                       # Average occupied blocks per requestor
system.l2cache.tags.occ_blocks::.cpu.dcache.prefetcher  1025.607608                       # Average occupied blocks per requestor
system.l2cache.tags.occ_blocks::.l2cache.prefetcher   121.899834                       # Average occupied blocks per requestor
system.l2cache.tags.occ_percent::.writebacks     0.009965                       # Average percentage of cache occupancy
system.l2cache.tags.occ_percent::.cpu.inst     0.265573                       # Average percentage of cache occupancy
system.l2cache.tags.occ_percent::.cpu.data     0.444309                       # Average percentage of cache occupancy
system.l2cache.tags.occ_percent::.cpu.dcache.prefetcher     0.250392                       # Average percentage of cache occupancy
system.l2cache.tags.occ_percent::.l2cache.prefetcher     0.029761                       # Average percentage of cache occupancy
system.l2cache.tags.occ_percent::total              1                       # Average percentage of cache occupancy
system.l2cache.tags.occ_task_id_blocks::1022         1060                       # Occupied blocks per task id
system.l2cache.tags.occ_task_id_blocks::1024         3036                       # Occupied blocks per task id
system.l2cache.tags.age_task_id_blocks_1022::0            5                       # Occupied blocks per task id
system.l2cache.tags.age_task_id_blocks_1022::1          113                       # Occupied blocks per task id
system.l2cache.tags.age_task_id_blocks_1022::2          939                       # Occupied blocks per task id
system.l2cache.tags.age_task_id_blocks_1022::3            3                       # Occupied blocks per task id
system.l2cache.tags.age_task_id_blocks_1024::0          177                       # Occupied blocks per task id
system.l2cache.tags.age_task_id_blocks_1024::1          881                       # Occupied blocks per task id
system.l2cache.tags.age_task_id_blocks_1024::2         1936                       # Occupied blocks per task id
system.l2cache.tags.age_task_id_blocks_1024::3           42                       # Occupied blocks per task id
system.l2cache.tags.occ_task_id_percent::1022     0.258789                       # Percentage of cache occupancy per task id
system.l2cache.tags.occ_task_id_percent::1024     0.741211                       # Percentage of cache occupancy per task id
system.l2cache.tags.tag_accesses                17817                       # Number of tag accesses
system.l2cache.tags.data_accesses               17817                       # Number of data accesses
system.mem_ctrl.pwrStateResidencyTicks::UNDEFINED     52417200                       # Cumulative time (in ticks) in various power states
system.mem_ctrl.bytes_read::.cpu.inst           24832                       # Number of bytes read from this memory
system.mem_ctrl.bytes_read::.cpu.data           10304                       # Number of bytes read from this memory
system.mem_ctrl.bytes_read::.cpu.dcache.prefetcher         2176                       # Number of bytes read from this memory
system.mem_ctrl.bytes_read::.l2cache.prefetcher          192                       # Number of bytes read from this memory
system.mem_ctrl.bytes_read::total               37504                       # Number of bytes read from this memory
system.mem_ctrl.bytes_inst_read::.cpu.inst        24832                       # Number of instructions bytes read from this memory
system.mem_ctrl.bytes_inst_read::total          24832                       # Number of instructions bytes read from this memory
system.mem_ctrl.bytes_written::.writebacks         2176                       # Number of bytes written to this memory
system.mem_ctrl.bytes_written::total             2176                       # Number of bytes written to this memory
system.mem_ctrl.num_reads::.cpu.inst              388                       # Number of read requests responded to by this memory
system.mem_ctrl.num_reads::.cpu.data              161                       # Number of read requests responded to by this memory
system.mem_ctrl.num_reads::.cpu.dcache.prefetcher           34                       # Number of read requests responded to by this memory
system.mem_ctrl.num_reads::.l2cache.prefetcher            3                       # Number of read requests responded to by this memory
system.mem_ctrl.num_reads::total                  586                       # Number of read requests responded to by this memory
system.mem_ctrl.num_writes::.writebacks            34                       # Number of write requests responded to by this memory
system.mem_ctrl.num_writes::total                  34                       # Number of write requests responded to by this memory
system.mem_ctrl.bw_read::.cpu.inst          473737628                       # Total read bandwidth from this memory (bytes/s)
system.mem_ctrl.bw_read::.cpu.data          196576696                       # Total read bandwidth from this memory (bytes/s)
system.mem_ctrl.bw_read::.cpu.dcache.prefetcher     41513091                       # Total read bandwidth from this memory (bytes/s)
system.mem_ctrl.bw_read::.l2cache.prefetcher      3662920                       # Total read bandwidth from this memory (bytes/s)
system.mem_ctrl.bw_read::total              715490335                       # Total read bandwidth from this memory (bytes/s)
system.mem_ctrl.bw_inst_read::.cpu.inst     473737628                       # Instruction read bandwidth from this memory (bytes/s)
system.mem_ctrl.bw_inst_read::total         473737628                       # Instruction read bandwidth from this memory (bytes/s)
system.mem_ctrl.bw_write::.writebacks        41513091                       # Write bandwidth from this memory (bytes/s)
system.mem_ctrl.bw_write::total              41513091                       # Write bandwidth from this memory (bytes/s)
system.mem_ctrl.bw_total::.writebacks        41513091                       # Total bandwidth to/from this memory (bytes/s)
system.mem_ctrl.bw_total::.cpu.inst         473737628                       # Total bandwidth to/from this memory (bytes/s)
system.mem_ctrl.bw_total::.cpu.data         196576696                       # Total bandwidth to/from this memory (bytes/s)
system.mem_ctrl.bw_total::.cpu.dcache.prefetcher     41513091                       # Total bandwidth to/from this memory (bytes/s)
system.mem_ctrl.bw_total::.l2cache.prefetcher      3662920                       # Total bandwidth to/from this memory (bytes/s)
system.mem_ctrl.bw_total::total             757003426                       # Total bandwidth to/from this memory (bytes/s)

---------- End Simulation Statistics   ----------
