
---------- Begin Simulation Statistics ----------
final_tick                                 1205807200                       # Number of ticks from beginning of simulation (restored from checkpoints and never reset)
host_inst_rate                                 173618                       # Simulator instruction rate (inst/s)
host_mem_usage                                4408880                       # Number of bytes of host memory used
host_op_rate                                   307810                       # Simulator op (including micro ops) rate (op/s)
host_seconds                                    13.70                       # Real time elapsed on the host
host_tick_rate                               87983939                       # Simulator tick rate (ticks/s)
sim_freq                                 1000000000000                       # Frequency of simulated ticks
sim_insts                                     2379399                       # Number of instructions simulated
sim_ops                                       4218491                       # Number of ops (including micro ops) simulated
sim_seconds                                  0.001206                       # Number of seconds simulated
sim_ticks                                  1205807200                       # Number of ticks simulated
system.cpu.branchPred.BTBCorrect                    0                       # Number of correct BTB predictions (this stat may not work properly.
system.cpu.branchPred.BTBHitPct              0.000000                       # BTB Hit Percentage
system.cpu.branchPred.BTBHits                       0                       # Number of BTB hits
system.cpu.branchPred.BTBLookups               510152                       # Number of BTB lookups
system.cpu.branchPred.RASInCorrect                 29                       # Number of incorrect RAS predictions.
system.cpu.branchPred.condIncorrect             26488                       # Number of conditional branches incorrect
system.cpu.branchPred.condPredicted            531356                       # Number of conditional branches predicted
system.cpu.branchPred.indirectHits             276145                       # Number of indirect target hits.
system.cpu.branchPred.indirectLookups          510152                       # Number of indirect predictor lookups.
system.cpu.branchPred.indirectMisses           234007                       # Number of indirect misses.
system.cpu.branchPred.lookups                  574576                       # Number of BP lookups
system.cpu.branchPred.usedRAS                   19600                       # Number of times the RAS was used to get a target.
system.cpu.branchPredindirectMispredicted        14108                       # Number of mispredicted indirect branches.
system.cpu.cc_regfile_reads                   2656431                       # number of cc regfile reads
system.cpu.cc_regfile_writes                  2073220                       # number of cc regfile writes
system.cpu.commit.amos                              0                       # Number of atomic instructions committed
system.cpu.commit.branchMispredicts             26590                       # The number of times a branch was mispredicted
system.cpu.commit.branches                     422629                       # Number of branches committed
system.cpu.commit.bw_lim_events                713391                       # number cycles where commit BW limit reached
system.cpu.commit.commitNonSpecStalls             864                       # The number of times commit has been forced to stall to communicate backwards
system.cpu.commit.commitSquashedInsts          931759                       # The number of squashed insts skipped by commit
system.cpu.commit.committedInsts              2379399                       # Number of instructions committed
system.cpu.commit.committedOps                4218491                       # Number of ops (including micro ops) committed
system.cpu.commit.committed_per_cycle::samples      2591845                       # Number of insts commited each cycle
system.cpu.commit.committed_per_cycle::mean     1.627602                       # Number of insts commited each cycle
system.cpu.commit.committed_per_cycle::stdev     1.740666                       # Number of insts commited each cycle
system.cpu.commit.committed_per_cycle::underflows            0      0.00%      0.00% # Number of insts commited each cycle
system.cpu.commit.committed_per_cycle::0      1222620     47.17%     47.17% # Number of insts commited each cycle
system.cpu.commit.committed_per_cycle::1       207604      8.01%     55.18% # Number of insts commited each cycle
system.cpu.commit.committed_per_cycle::2       187367      7.23%     62.41% # Number of insts commited each cycle
system.cpu.commit.committed_per_cycle::3       260863     10.06%     72.48% # Number of insts commited each cycle
system.cpu.commit.committed_per_cycle::4       713391     27.52%    100.00% # Number of insts commited each cycle
system.cpu.commit.committed_per_cycle::overflows            0      0.00%    100.00% # Number of insts commited each cycle
system.cpu.commit.committed_per_cycle::min_value            0                       # Number of insts commited each cycle
system.cpu.commit.committed_per_cycle::max_value            4                       # Number of insts commited each cycle
system.cpu.commit.committed_per_cycle::total      2591845                       # Number of insts commited each cycle
system.cpu.commit.fp_insts                      75825                       # Number of committed floating point instructions.
system.cpu.commit.function_calls                17725                       # Number of function calls committed.
system.cpu.commit.int_insts                   4162331                       # Number of committed integer instructions.
system.cpu.commit.loads                        601840                       # Number of loads committed
system.cpu.commit.membars                           1                       # Number of memory barriers committed
system.cpu.commit.op_class_0::No_OpClass        20844      0.49%      0.49% # Class of committed instruction
system.cpu.commit.op_class_0::IntAlu          3291438     78.02%     78.52% # Class of committed instruction
system.cpu.commit.op_class_0::IntMult            1053      0.02%     78.54% # Class of committed instruction
system.cpu.commit.op_class_0::IntDiv            38203      0.91%     79.45% # Class of committed instruction
system.cpu.commit.op_class_0::FloatAdd           2996      0.07%     79.52% # Class of committed instruction
system.cpu.commit.op_class_0::FloatCmp              0      0.00%     79.52% # Class of committed instruction
system.cpu.commit.op_class_0::FloatCvt           1376      0.03%     79.55% # Class of committed instruction
system.cpu.commit.op_class_0::FloatMult             0      0.00%     79.55% # Class of committed instruction
system.cpu.commit.op_class_0::FloatMultAcc            0      0.00%     79.55% # Class of committed instruction
system.cpu.commit.op_class_0::FloatDiv              0      0.00%     79.55% # Class of committed instruction
system.cpu.commit.op_class_0::FloatMisc             0      0.00%     79.55% # Class of committed instruction
system.cpu.commit.op_class_0::FloatSqrt             0      0.00%     79.55% # Class of committed instruction
system.cpu.commit.op_class_0::SimdAdd            6346      0.15%     79.70% # Class of committed instruction
system.cpu.commit.op_class_0::SimdAddAcc            0      0.00%     79.70% # Class of committed instruction
system.cpu.commit.op_class_0::SimdAlu           11415      0.27%     79.97% # Class of committed instruction
system.cpu.commit.op_class_0::SimdCmp               0      0.00%     79.97% # Class of committed instruction
system.cpu.commit.op_class_0::SimdCvt           12434      0.29%     80.27% # Class of committed instruction
system.cpu.commit.op_class_0::SimdMisc           6715      0.16%     80.43% # Class of committed instruction
system.cpu.commit.op_class_0::SimdMult              0      0.00%     80.43% # Class of committed instruction
system.cpu.commit.op_class_0::SimdMultAcc            0      0.00%     80.43% # Class of committed instruction
system.cpu.commit.op_class_0::SimdShift          1273      0.03%     80.46% # Class of committed instruction
system.cpu.commit.op_class_0::SimdShiftAcc            0      0.00%     80.46% # Class of committed instruction
system.cpu.commit.op_class_0::SimdDiv               0      0.00%     80.46% # Class of committed instruction
system.cpu.commit.op_class_0::SimdSqrt              0      0.00%     80.46% # Class of committed instruction
system.cpu.commit.op_class_0::SimdFloatAdd            0      0.00%     80.46% # Class of committed instruction
system.cpu.commit.op_class_0::SimdFloatAlu            0      0.00%     80.46% # Class of committed instruction
system.cpu.commit.op_class_0::SimdFloatCmp            0      0.00%     80.46% # Class of committed instruction
system.cpu.commit.op_class_0::SimdFloatCvt            0      0.00%     80.46% # Class of committed instruction
system.cpu.commit.op_class_0::SimdFloatDiv            0      0.00%     80.46% # Class of committed instruction
system.cpu.commit.op_class_0::SimdFloatMisc            0      0.00%     80.46% # Class of committed instruction
system.cpu.commit.op_class_0::SimdFloatMult            0      0.00%     80.46% # Class of committed instruction
system.cpu.commit.op_class_0::SimdFloatMultAcc            0      0.00%     80.46% # Class of committed instruction
system.cpu.commit.op_class_0::SimdFloatSqrt            0      0.00%     80.46% # Class of committed instruction
system.cpu.commit.op_class_0::SimdReduceAdd            0      0.00%     80.46% # Class of committed instruction
system.cpu.commit.op_class_0::SimdReduceAlu            0      0.00%     80.46% # Class of committed instruction
system.cpu.commit.op_class_0::SimdReduceCmp            0      0.00%     80.46% # Class of committed instruction
system.cpu.commit.op_class_0::SimdFloatReduceAdd            0      0.00%     80.46% # Class of committed instruction
system.cpu.commit.op_class_0::SimdFloatReduceCmp            0      0.00%     80.46% # Class of committed instruction
system.cpu.commit.op_class_0::SimdAes               0      0.00%     80.46% # Class of committed instruction
system.cpu.commit.op_class_0::SimdAesMix            0      0.00%     80.46% # Class of committed instruction
system.cpu.commit.op_class_0::SimdSha1Hash            0      0.00%     80.46% # Class of committed instruction
system.cpu.commit.op_class_0::SimdSha1Hash2            0      0.00%     80.46% # Class of committed instruction
system.cpu.commit.op_class_0::SimdSha256Hash            0      0.00%     80.46% # Class of committed instruction
system.cpu.commit.op_class_0::SimdSha256Hash2            0      0.00%     80.46% # Class of committed instruction
system.cpu.commit.op_class_0::SimdShaSigma2            0      0.00%     80.46% # Class of committed instruction
system.cpu.commit.op_class_0::SimdShaSigma3            0      0.00%     80.46% # Class of committed instruction
system.cpu.commit.op_class_0::SimdPredAlu            0      0.00%     80.46% # Class of committed instruction
system.cpu.commit.op_class_0::MemRead          581952     13.80%     94.25% # Class of committed instruction
system.cpu.commit.op_class_0::MemWrite         210059      4.98%     99.23% # Class of committed instruction
system.cpu.commit.op_class_0::FloatMemRead        19888      0.47%     99.70% # Class of committed instruction
system.cpu.commit.op_class_0::FloatMemWrite        12499      0.30%    100.00% # Class of committed instruction
system.cpu.commit.op_class_0::IprAccess             0      0.00%    100.00% # Class of committed instruction
system.cpu.commit.op_class_0::InstPrefetch            0      0.00%    100.00% # Class of committed instruction
system.cpu.commit.op_class_0::total           4218491                       # Class of committed instruction
system.cpu.commit.refs                         824398                       # Number of memory references committed
system.cpu.commit.swp_count                         0                       # Number of s/w prefetches committed
system.cpu.commit.vec_insts                         0                       # Number of committed Vector instructions.
system.cpu.committedInsts                     2379399                       # Number of Instructions Simulated
system.cpu.committedOps                       4218491                       # Number of Ops (including micro ops) Simulated
system.cpu.cpi                               1.266925                       # CPI: Cycles Per Instruction
system.cpu.cpi_total                         1.266925                       # CPI: Total CPI of All Threads
system.cpu.dcache.prefetcher.num_hwpf_issued         7660                       # number of hwpf issued
system.cpu.dcache.prefetcher.pfBufferHit        32810                       # number of redundant prefetches already in prefetch queue
system.cpu.dcache.prefetcher.pfIdentified        47129                       # number of prefetch candidates identified
system.cpu.dcache.prefetcher.pfInCache              0                       # number of redundant prefetches already in cache/mshr dropped
system.cpu.dcache.prefetcher.pfRemovedFull            0                       # number of prefetches dropped due to prefetch queue size
system.cpu.dcache.prefetcher.pfSpanPage          4111                       # number of prefetches that crossed the page
system.cpu.decode.BlockedCycles               1040666                       # Number of cycles decode is blocked
system.cpu.decode.DecodedInsts                5383424                       # Number of instructions handled by decode
system.cpu.decode.IdleCycles                   356655                       # Number of cycles decode is idle
system.cpu.decode.RunCycles                   1334016                       # Number of cycles decode is running
system.cpu.decode.SquashCycles                  26656                       # Number of cycles decode is squashing
system.cpu.decode.UnblockCycles                 88888                       # Number of cycles decode is unblocking
system.cpu.dtb.rdAccesses                      687361                       # TLB accesses on read requests
system.cpu.dtb.rdMisses                          2067                       # TLB misses on read requests
system.cpu.dtb.wrAccesses                      242672                       # TLB accesses on write requests
system.cpu.dtb.wrMisses                           167                       # TLB misses on write requests
system.cpu.fetch.Branches                      574576                       # Number of branches that fetch encountered
system.cpu.fetch.CacheLines                    297991                       # Number of cache lines fetched
system.cpu.fetch.Cycles                       2425481                       # Number of cycles fetch has run and was not squashing or blocked
system.cpu.fetch.IcacheSquashes                  5589                       # Number of outstanding Icache misses that were squashed
system.cpu.fetch.IcacheWaitRetryStallCycles           10                       # Number of stall cycles due to full MSHR
system.cpu.fetch.Insts                        3180017                       # Number of instructions fetch has processed
system.cpu.fetch.MiscStallCycles                  145                       # Number of cycles fetch has spent waiting on interrupts, or bad addresses, or out of MSHRs
system.cpu.fetch.PendingQuiesceStallCycles            8                       # Number of stall cycles due to pending quiesce instructions
system.cpu.fetch.PendingTrapStallCycles           688                       # Number of stall cycles due to pending traps
system.cpu.fetch.SquashCycles                   53312                       # Number of cycles fetch has spent squashing
system.cpu.fetch.branchRate                  0.190603                       # Number of branch fetches per cycle
system.cpu.fetch.icacheStallCycles             393893                       # Number of cycles fetch is stalled on an Icache miss
system.cpu.fetch.predictedBranches             295745                       # Number of branches that fetch has predicted taken
system.cpu.fetch.rate                        1.054900                       # Number of inst fetches per cycle
system.cpu.fetch.rateDist::samples            2846881                       # Number of instructions fetched each cycle (Total)
system.cpu.fetch.rateDist::mean              1.991433                       # Number of instructions fetched each cycle (Total)
system.cpu.fetch.rateDist::stdev             1.923249                       # Number of instructions fetched each cycle (Total)
system.cpu.fetch.rateDist::underflows               0      0.00%      0.00% # Number of instructions fetched each cycle (Total)
system.cpu.fetch.rateDist::0                  1301905     45.73%     45.73% # Number of instructions fetched each cycle (Total)
system.cpu.fetch.rateDist::1                    88207      3.10%     48.83% # Number of instructions fetched each cycle (Total)
system.cpu.fetch.rateDist::2                    72659      2.55%     51.38% # Number of instructions fetched each cycle (Total)
system.cpu.fetch.rateDist::3                   100591      3.53%     54.91% # Number of instructions fetched each cycle (Total)
system.cpu.fetch.rateDist::4                  1283519     45.09%    100.00% # Number of instructions fetched each cycle (Total)
system.cpu.fetch.rateDist::overflows                0      0.00%    100.00% # Number of instructions fetched each cycle (Total)
system.cpu.fetch.rateDist::min_value                0                       # Number of instructions fetched each cycle (Total)
system.cpu.fetch.rateDist::max_value                4                       # Number of instructions fetched each cycle (Total)
system.cpu.fetch.rateDist::total              2846881                       # Number of instructions fetched each cycle (Total)
system.cpu.fp_regfile_reads                    124000                       # number of floating regfile reads
system.cpu.fp_regfile_writes                    68564                       # number of floating regfile writes
system.cpu.fuPool.fu_ticks_busy::IntALU(0)    249617200                       # Total ticks fu was busy
system.cpu.fuPool.fu_ticks_busy::IntALU(1)    249616800                       # Total ticks fu was busy
system.cpu.fuPool.fu_ticks_busy::IntALU(2)    249616800                       # Total ticks fu was busy
system.cpu.fuPool.fu_ticks_busy::IntALU(3)    249616800                       # Total ticks fu was busy
system.cpu.fuPool.fu_ticks_busy::IntALU(4)    249616800                       # Total ticks fu was busy
system.cpu.fuPool.fu_ticks_busy::IntALU(5)    249616800                       # Total ticks fu was busy
system.cpu.fuPool.fu_ticks_busy::IntMultDiv(0)      8665600                       # Total ticks fu was busy
system.cpu.fuPool.fu_ticks_busy::IntMultDiv(1)      8665200                       # Total ticks fu was busy
system.cpu.fuPool.fu_ticks_busy::FP_ALU(0)       609600                       # Total ticks fu was busy
system.cpu.fuPool.fu_ticks_busy::FP_ALU(1)       609600                       # Total ticks fu was busy
system.cpu.fuPool.fu_ticks_busy::FP_ALU(2)       609200                       # Total ticks fu was busy
system.cpu.fuPool.fu_ticks_busy::FP_ALU(3)       609200                       # Total ticks fu was busy
system.cpu.fuPool.fu_ticks_busy::FP_MultDiv(0)            0                       # Total ticks fu was busy
system.cpu.fuPool.fu_ticks_busy::FP_MultDiv(1)            0                       # Total ticks fu was busy
system.cpu.fuPool.fu_ticks_busy::SIMD_Unit(0)      4736400                       # Total ticks fu was busy
system.cpu.fuPool.fu_ticks_busy::SIMD_Unit(1)      4527600                       # Total ticks fu was busy
system.cpu.fuPool.fu_ticks_busy::SIMD_Unit(2)      4553200                       # Total ticks fu was busy
system.cpu.fuPool.fu_ticks_busy::SIMD_Unit(3)      4769600                       # Total ticks fu was busy
system.cpu.fuPool.fu_ticks_busy::PredALU(0)            0                       # Total ticks fu was busy
system.cpu.fuPool.fu_ticks_busy::RdWrPort(0)     94703200                       # Total ticks fu was busy
system.cpu.fuPool.fu_ticks_busy::RdWrPort(1)     94613200                       # Total ticks fu was busy
system.cpu.fuPool.fu_ticks_busy::RdWrPort(2)     94657600                       # Total ticks fu was busy
system.cpu.fuPool.fu_ticks_busy::RdWrPort(3)     94691600                       # Total ticks fu was busy
system.cpu.fuPool.fu_ticks_busy::IprPort(0)            0                       # Total ticks fu was busy
system.cpu.fuPool.fu_ticks_busy::total     1914722000                       # Total ticks fu was busy
system.cpu.icache.prefetcher.num_hwpf_issued            0                       # number of hwpf issued
system.cpu.icache.prefetcher.pfBufferHit            0                       # number of redundant prefetches already in prefetch queue
system.cpu.icache.prefetcher.pfIdentified            0                       # number of prefetch candidates identified
system.cpu.icache.prefetcher.pfInCache              0                       # number of redundant prefetches already in cache/mshr dropped
system.cpu.icache.prefetcher.pfRemovedFull            0                       # number of prefetches dropped due to prefetch queue size
system.cpu.icache.prefetcher.pfSpanPage             0                       # number of prefetches that crossed the page
system.cpu.idleCycles                          167638                       # Total number of cycles that the CPU has spent unscheduled due to idling
system.cpu.iew.branchMispredicts                31128                       # Number of branch mispredicts detected at execute
system.cpu.iew.exec_branches                   453790                       # Number of branches executed
system.cpu.iew.exec_nop                             0                       # number of nop insts executed
system.cpu.iew.exec_rate                     1.584093                       # Inst execution rate
system.cpu.iew.exec_refs                       931618                       # number of memory reference insts executed
system.cpu.iew.exec_stores                     242656                       # Number of stores executed
system.cpu.iew.exec_swp                             0                       # number of swp insts executed
system.cpu.iew.iewBlockCycles                  713715                       # Number of cycles IEW is blocking
system.cpu.iew.iewDispLoadInsts                723599                       # Number of dispatched load instructions
system.cpu.iew.iewDispNonSpecInsts               1521                       # Number of dispatched non-speculative instructions
system.cpu.iew.iewDispSquashedInsts               654                       # Number of squashed instructions skipped by dispatch
system.cpu.iew.iewDispStoreInsts               255833                       # Number of dispatched store instructions
system.cpu.iew.iewDispatchedInsts             5150205                       # Number of instructions dispatched to IQ
system.cpu.iew.iewExecLoadInsts                688962                       # Number of load instructions executed
system.cpu.iew.iewExecSquashedInsts             39321                       # Number of squashed instructions skipped in execute
system.cpu.iew.iewExecutedInsts               4775277                       # Number of executed instructions
system.cpu.iew.iewIQFullEvents                   3359                       # Number of times the IQ has become full, causing a stall
system.cpu.iew.iewIdleCycles                        0                       # Number of cycles IEW is idle
system.cpu.iew.iewLSQFullEvents                  8786                       # Number of times the LSQ has become full, causing a stall
system.cpu.iew.iewSquashCycles                  26656                       # Number of cycles IEW is squashing
system.cpu.iew.iewUnblockCycles                 15026                       # Number of cycles IEW is unblocking
system.cpu.iew.lsq.thread0.blockedLoads             0                       # Number of blocked loads due to partial load-store forwarding
system.cpu.iew.lsq.thread0.cacheBlocked           573                       # Number of times an access to memory failed due to the cache being blocked
system.cpu.iew.lsq.thread0.forwLoads            43181                       # Number of loads that had data forwarded from stores
system.cpu.iew.lsq.thread0.ignoredResponses          239                       # Number of memory responses ignored because the instruction is squashed
system.cpu.iew.lsq.thread0.invAddrLoads             0                       # Number of loads ignored due to an invalid address
system.cpu.iew.lsq.thread0.invAddrSwpfs             0                       # Number of software prefetches ignored due to an invalid address
system.cpu.iew.lsq.thread0.memOrderViolation           73                       # Number of memory ordering violations
system.cpu.iew.lsq.thread0.rescheduledLoads            0                       # Number of loads that were rescheduled
system.cpu.iew.lsq.thread0.squashedLoads       121757                       # Number of loads squashed
system.cpu.iew.lsq.thread0.squashedStores        33274                       # Number of stores squashed
system.cpu.iew.memOrderViolationEvents             73                       # Number of memory order violations
system.cpu.iew.predictedNotTakenIncorrect        22781                       # Number of branches that were predicted not taken incorrectly
system.cpu.iew.predictedTakenIncorrect           8347                       # Number of branches that were predicted taken incorrectly
system.cpu.iew.wb_consumers                   6414716                       # num instructions consuming a value
system.cpu.iew.wb_count                       4752135                       # cumulative count of insts written-back
system.cpu.iew.wb_fanout                     0.577395                       # average fanout of values written-back
system.cpu.iew.wb_producers                   3703822                       # num instructions producing a value
system.cpu.iew.wb_rate                       1.576416                       # insts written-back per cycle
system.cpu.iew.wb_sent                        4759584                       # cumulative count of insts sent to commit
system.cpu.int_regfile_reads                  7396234                       # number of integer regfile reads
system.cpu.int_regfile_writes                 4063861                       # number of integer regfile writes
system.cpu.ipc                               0.789313                       # IPC: Instructions Per Cycle
system.cpu.ipc_total                         0.789313                       # IPC: Total IPC of All Threads
system.cpu.iq.FU_type_0::No_OpClass             27793      0.58%      0.58% # Type of FU issued
system.cpu.iq.FU_type_0::IntAlu               3744254     77.77%     78.35% # Type of FU issued
system.cpu.iq.FU_type_0::IntMult                 1079      0.02%     78.37% # Type of FU issued
system.cpu.iq.FU_type_0::IntDiv                 42248      0.88%     79.25% # Type of FU issued
system.cpu.iq.FU_type_0::FloatAdd                4664      0.10%     79.34% # Type of FU issued
system.cpu.iq.FU_type_0::FloatCmp                   0      0.00%     79.34% # Type of FU issued
system.cpu.iq.FU_type_0::FloatCvt                1430      0.03%     79.37% # Type of FU issued
system.cpu.iq.FU_type_0::FloatMult                  0      0.00%     79.37% # Type of FU issued
system.cpu.iq.FU_type_0::FloatMultAcc               0      0.00%     79.37% # Type of FU issued
system.cpu.iq.FU_type_0::FloatDiv                   0      0.00%     79.37% # Type of FU issued
system.cpu.iq.FU_type_0::FloatMisc                  0      0.00%     79.37% # Type of FU issued
system.cpu.iq.FU_type_0::FloatSqrt                  0      0.00%     79.37% # Type of FU issued
system.cpu.iq.FU_type_0::SimdAdd                 7024      0.15%     79.52% # Type of FU issued
system.cpu.iq.FU_type_0::SimdAddAcc                 0      0.00%     79.52% # Type of FU issued
system.cpu.iq.FU_type_0::SimdAlu                15348      0.32%     79.84% # Type of FU issued
system.cpu.iq.FU_type_0::SimdCmp                    0      0.00%     79.84% # Type of FU issued
system.cpu.iq.FU_type_0::SimdCvt                14282      0.30%     80.13% # Type of FU issued
system.cpu.iq.FU_type_0::SimdMisc                7340      0.15%     80.29% # Type of FU issued
system.cpu.iq.FU_type_0::SimdMult                   0      0.00%     80.29% # Type of FU issued
system.cpu.iq.FU_type_0::SimdMultAcc                0      0.00%     80.29% # Type of FU issued
system.cpu.iq.FU_type_0::SimdShift               2473      0.05%     80.34% # Type of FU issued
system.cpu.iq.FU_type_0::SimdShiftAcc               0      0.00%     80.34% # Type of FU issued
system.cpu.iq.FU_type_0::SimdDiv                    0      0.00%     80.34% # Type of FU issued
system.cpu.iq.FU_type_0::SimdSqrt                   0      0.00%     80.34% # Type of FU issued
system.cpu.iq.FU_type_0::SimdFloatAdd               0      0.00%     80.34% # Type of FU issued
system.cpu.iq.FU_type_0::SimdFloatAlu               0      0.00%     80.34% # Type of FU issued
system.cpu.iq.FU_type_0::SimdFloatCmp               0      0.00%     80.34% # Type of FU issued
system.cpu.iq.FU_type_0::SimdFloatCvt               0      0.00%     80.34% # Type of FU issued
system.cpu.iq.FU_type_0::SimdFloatDiv               0      0.00%     80.34% # Type of FU issued
system.cpu.iq.FU_type_0::SimdFloatMisc              0      0.00%     80.34% # Type of FU issued
system.cpu.iq.FU_type_0::SimdFloatMult              0      0.00%     80.34% # Type of FU issued
system.cpu.iq.FU_type_0::SimdFloatMultAcc            0      0.00%     80.34% # Type of FU issued
system.cpu.iq.FU_type_0::SimdFloatSqrt              0      0.00%     80.34% # Type of FU issued
system.cpu.iq.FU_type_0::SimdReduceAdd              0      0.00%     80.34% # Type of FU issued
system.cpu.iq.FU_type_0::SimdReduceAlu              0      0.00%     80.34% # Type of FU issued
system.cpu.iq.FU_type_0::SimdReduceCmp              0      0.00%     80.34% # Type of FU issued
system.cpu.iq.FU_type_0::SimdFloatReduceAdd            0      0.00%     80.34% # Type of FU issued
system.cpu.iq.FU_type_0::SimdFloatReduceCmp            0      0.00%     80.34% # Type of FU issued
system.cpu.iq.FU_type_0::SimdAes                    0      0.00%     80.34% # Type of FU issued
system.cpu.iq.FU_type_0::SimdAesMix                 0      0.00%     80.34% # Type of FU issued
system.cpu.iq.FU_type_0::SimdSha1Hash               0      0.00%     80.34% # Type of FU issued
system.cpu.iq.FU_type_0::SimdSha1Hash2              0      0.00%     80.34% # Type of FU issued
system.cpu.iq.FU_type_0::SimdSha256Hash             0      0.00%     80.34% # Type of FU issued
system.cpu.iq.FU_type_0::SimdSha256Hash2            0      0.00%     80.34% # Type of FU issued
system.cpu.iq.FU_type_0::SimdShaSigma2              0      0.00%     80.34% # Type of FU issued
system.cpu.iq.FU_type_0::SimdShaSigma3              0      0.00%     80.34% # Type of FU issued
system.cpu.iq.FU_type_0::SimdPredAlu                0      0.00%     80.34% # Type of FU issued
system.cpu.iq.FU_type_0::MemRead               674455     14.01%     94.35% # Type of FU issued
system.cpu.iq.FU_type_0::MemWrite              232082      4.82%     99.17% # Type of FU issued
system.cpu.iq.FU_type_0::FloatMemRead           26369      0.55%     99.71% # Type of FU issued
system.cpu.iq.FU_type_0::FloatMemWrite          13760      0.29%    100.00% # Type of FU issued
system.cpu.iq.FU_type_0::IprAccess                  0      0.00%    100.00% # Type of FU issued
system.cpu.iq.FU_type_0::InstPrefetch               0      0.00%    100.00% # Type of FU issued
system.cpu.iq.FU_type_0::total                4814601                       # Type of FU issued
system.cpu.iq.fp_alu_accesses                   93773                       # Number of floating point alu accesses
system.cpu.iq.fp_inst_queue_reads              188990                       # Number of floating instruction queue reads
system.cpu.iq.fp_inst_queue_wakeup_accesses        89989                       # Number of floating instruction queue wakeup accesses
system.cpu.iq.fp_inst_queue_writes             138853                       # Number of floating instruction queue writes
system.cpu.iq.fu_busy_cnt                           0                       # FU busy when requested
system.cpu.iq.fu_busy_rate                          0                       # FU busy rate (busy events/executed inst)
system.cpu.iq.fu_full::No_OpClass                   0                       # attempts to use FU when none available
system.cpu.iq.fu_full::IntAlu                       0                       # attempts to use FU when none available
system.cpu.iq.fu_full::IntMult                      0                       # attempts to use FU when none available
system.cpu.iq.fu_full::IntDiv                       0                       # attempts to use FU when none available
system.cpu.iq.fu_full::FloatAdd                     0                       # attempts to use FU when none available
system.cpu.iq.fu_full::FloatCmp                     0                       # attempts to use FU when none available
system.cpu.iq.fu_full::FloatCvt                     0                       # attempts to use FU when none available
system.cpu.iq.fu_full::FloatMult                    0                       # attempts to use FU when none available
system.cpu.iq.fu_full::FloatMultAcc                 0                       # attempts to use FU when none available
system.cpu.iq.fu_full::FloatDiv                     0                       # attempts to use FU when none available
system.cpu.iq.fu_full::FloatMisc                    0                       # attempts to use FU when none available
system.cpu.iq.fu_full::FloatSqrt                    0                       # attempts to use FU when none available
system.cpu.iq.fu_full::SimdAdd                      0                       # attempts to use FU when none available
system.cpu.iq.fu_full::SimdAddAcc                   0                       # attempts to use FU when none available
system.cpu.iq.fu_full::SimdAlu                      0                       # attempts to use FU when none available
system.cpu.iq.fu_full::SimdCmp                      0                       # attempts to use FU when none available
system.cpu.iq.fu_full::SimdCvt                      0                       # attempts to use FU when none available
system.cpu.iq.fu_full::SimdMisc                     0                       # attempts to use FU when none available
system.cpu.iq.fu_full::SimdMult                     0                       # attempts to use FU when none available
system.cpu.iq.fu_full::SimdMultAcc                  0                       # attempts to use FU when none available
system.cpu.iq.fu_full::SimdShift                    0                       # attempts to use FU when none available
system.cpu.iq.fu_full::SimdShiftAcc                 0                       # attempts to use FU when none available
system.cpu.iq.fu_full::SimdDiv                      0                       # attempts to use FU when none available
system.cpu.iq.fu_full::SimdSqrt                     0                       # attempts to use FU when none available
system.cpu.iq.fu_full::SimdFloatAdd                 0                       # attempts to use FU when none available
system.cpu.iq.fu_full::SimdFloatAlu                 0                       # attempts to use FU when none available
system.cpu.iq.fu_full::SimdFloatCmp                 0                       # attempts to use FU when none available
system.cpu.iq.fu_full::SimdFloatCvt                 0                       # attempts to use FU when none available
system.cpu.iq.fu_full::SimdFloatDiv                 0                       # attempts to use FU when none available
system.cpu.iq.fu_full::SimdFloatMisc                0                       # attempts to use FU when none available
system.cpu.iq.fu_full::SimdFloatMult                0                       # attempts to use FU when none available
system.cpu.iq.fu_full::SimdFloatMultAcc             0                       # attempts to use FU when none available
system.cpu.iq.fu_full::SimdFloatSqrt                0                       # attempts to use FU when none available
system.cpu.iq.fu_full::SimdReduceAdd                0                       # attempts to use FU when none available
system.cpu.iq.fu_full::SimdReduceAlu                0                       # attempts to use FU when none available
system.cpu.iq.fu_full::SimdReduceCmp                0                       # attempts to use FU when none available
system.cpu.iq.fu_full::SimdFloatReduceAdd            0                       # attempts to use FU when none available
system.cpu.iq.fu_full::SimdFloatReduceCmp            0                       # attempts to use FU when none available
system.cpu.iq.fu_full::SimdAes                      0                       # attempts to use FU when none available
system.cpu.iq.fu_full::SimdAesMix                   0                       # attempts to use FU when none available
system.cpu.iq.fu_full::SimdSha1Hash                 0                       # attempts to use FU when none available
system.cpu.iq.fu_full::SimdSha1Hash2                0                       # attempts to use FU when none available
system.cpu.iq.fu_full::SimdSha256Hash               0                       # attempts to use FU when none available
system.cpu.iq.fu_full::SimdSha256Hash2              0                       # attempts to use FU when none available
system.cpu.iq.fu_full::SimdShaSigma2                0                       # attempts to use FU when none available
system.cpu.iq.fu_full::SimdShaSigma3                0                       # attempts to use FU when none available
system.cpu.iq.fu_full::SimdPredAlu                  0                       # attempts to use FU when none available
system.cpu.iq.fu_full::MemRead                      0                       # attempts to use FU when none available
system.cpu.iq.fu_full::MemWrite                     0                       # attempts to use FU when none available
system.cpu.iq.fu_full::FloatMemRead                 0                       # attempts to use FU when none available
system.cpu.iq.fu_full::FloatMemWrite                0                       # attempts to use FU when none available
system.cpu.iq.fu_full::IprAccess                    0                       # attempts to use FU when none available
system.cpu.iq.fu_full::InstPrefetch                 0                       # attempts to use FU when none available
system.cpu.iq.int_alu_accesses                4693035                       # Number of integer alu accesses
system.cpu.iq.int_inst_queue_reads           12306502                       # Number of integer instruction queue reads
system.cpu.iq.int_inst_queue_wakeup_accesses      4662146                       # Number of integer instruction queue wakeup accesses
system.cpu.iq.int_inst_queue_writes           5943128                       # Number of integer instruction queue writes
system.cpu.iq.iqInstsAdded                    5147592                       # Number of instructions added to the IQ (excludes non-spec)
system.cpu.iq.iqInstsIssued                   4814601                       # Number of instructions issued
system.cpu.iq.iqNonSpecInstsAdded                2613                       # Number of non-speculative instructions added to the IQ
system.cpu.iq.iqSquashedInstsExamined          931703                       # Number of squashed instructions iterated over during squash; mainly for profiling
system.cpu.iq.iqSquashedInstsIssued             19412                       # Number of squashed instructions issued
system.cpu.iq.iqSquashedNonSpecRemoved           1749                       # Number of squashed non-spec instructions that were removed
system.cpu.iq.iqSquashedOperandsExamined      1381054                       # Number of squashed operands that are examined and possibly removed from graph
system.cpu.iq.issued_per_cycle::samples       2846881                       # Number of insts issued each cycle
system.cpu.iq.issued_per_cycle::mean         1.691184                       # Number of insts issued each cycle
system.cpu.iq.issued_per_cycle::stdev        1.666742                       # Number of insts issued each cycle
system.cpu.iq.issued_per_cycle::underflows            0      0.00%      0.00% # Number of insts issued each cycle
system.cpu.iq.issued_per_cycle::0             1214152     42.65%     42.65% # Number of insts issued each cycle
system.cpu.iq.issued_per_cycle::1              206640      7.26%     49.91% # Number of insts issued each cycle
system.cpu.iq.issued_per_cycle::2              350897     12.33%     62.23% # Number of insts issued each cycle
system.cpu.iq.issued_per_cycle::3              394601     13.86%     76.09% # Number of insts issued each cycle
system.cpu.iq.issued_per_cycle::4              680591     23.91%    100.00% # Number of insts issued each cycle
system.cpu.iq.issued_per_cycle::overflows            0      0.00%    100.00% # Number of insts issued each cycle
system.cpu.iq.issued_per_cycle::min_value            0                       # Number of insts issued each cycle
system.cpu.iq.issued_per_cycle::max_value            4                       # Number of insts issued each cycle
system.cpu.iq.issued_per_cycle::total         2846881                       # Number of insts issued each cycle
system.cpu.iq.rate                           1.597137                       # Inst issue rate
system.cpu.iq.vec_alu_accesses                      0                       # Number of vector alu accesses
system.cpu.iq.vec_inst_queue_reads                  0                       # Number of vector instruction queue reads
system.cpu.iq.vec_inst_queue_wakeup_accesses            0                       # Number of vector instruction queue wakeup accesses
system.cpu.iq.vec_inst_queue_writes                 0                       # Number of vector instruction queue writes
system.cpu.itb.rdAccesses                           0                       # TLB accesses on read requests
system.cpu.itb.rdMisses                             0                       # TLB misses on read requests
system.cpu.itb.wrAccesses                      298111                       # TLB accesses on write requests
system.cpu.itb.wrMisses                           382                       # TLB misses on write requests
system.cpu.memDep0.conflictingLoads              8744                       # Number of conflicting loads.
system.cpu.memDep0.conflictingStores             5471                       # Number of conflicting stores.
system.cpu.memDep0.insertedLoads               723599                       # Number of loads inserted to the mem dependence unit.
system.cpu.memDep0.insertedStores              255833                       # Number of stores inserted to the mem dependence unit.
system.cpu.misc_regfile_reads                 1874792                       # number of misc regfile reads
system.cpu.misc_regfile_writes                    774                       # number of misc regfile writes
system.cpu.numCycles                          3014519                       # number of cpu cycles simulated
system.cpu.numWorkItemsCompleted                    0                       # number of work items this cpu completed
system.cpu.numWorkItemsStarted                      0                       # number of work items this cpu started
system.cpu.process.numSyscalls                     89                       # Number of system calls
system.cpu.rename.BlockCycles                  859752                       # Number of cycles rename is blocking
system.cpu.rename.CommittedMaps               5553303                       # Number of HB maps that are committed
system.cpu.rename.FullRegisterEvents               82                       # Number of times there has been no free registers
system.cpu.rename.IQFullEvents                  43065                       # Number of times rename has blocked due to IQ full
system.cpu.rename.IdleCycles                   408019                       # Number of cycles rename is idle
system.cpu.rename.LQFullEvents                  14076                       # Number of times rename has blocked due to LQ full
system.cpu.rename.ROBFullEvents                  4591                       # Number of times rename has blocked due to ROB full
system.cpu.rename.RenameLookups              13774453                       # Number of register rename lookups that rename has made
system.cpu.rename.RenamedInsts                5301059                       # Number of instructions processed by rename
system.cpu.rename.RenamedOperands             7005625                       # Number of destination operands rename has renamed
system.cpu.rename.RunCycles                   1362892                       # Number of cycles rename is running
system.cpu.rename.SQFullEvents                  72533                       # Number of times rename has blocked due to SQ full
system.cpu.rename.SquashCycles                  26656                       # Number of cycles rename is squashing
system.cpu.rename.UnblockCycles                167389                       # Number of cycles rename is unblocking
system.cpu.rename.UndoneMaps                  1452299                       # Number of HB maps that are undone due to squashing
system.cpu.rename.fp_rename_lookups            163165                       # Number of floating rename lookups
system.cpu.rename.int_rename_lookups          8387528                       # Number of integer rename lookups
system.cpu.rename.serializeStallCycles          22173                       # count of cycles rename stalled for serializing inst
system.cpu.rename.serializingInsts               1010                       # count of serializing insts renamed
system.cpu.rename.skidInsts                    202255                       # count of insts added to the skid buffer
system.cpu.rename.tempSerializingInsts           1068                       # count of temporary serializing insts renamed
system.cpu.rob.rob_reads                      7028704                       # The number of ROB reads
system.cpu.rob.rob_writes                    10556526                       # The number of ROB writes
system.cpu.timesIdled                            1766                       # Number of times that the entire CPU went into an idle state and unscheduled itself
system.l2bus.snoop_filter.hit_multi_requests           20                       # Number of requests hitting in the snoop filter with multiple (>1) holders of the requested data.
system.l2bus.snoop_filter.hit_multi_snoops            1                       # Number of snoops hitting in the snoop filter with multiple (>1) holders of the requested data.
system.l2bus.snoop_filter.hit_single_requests        18753                       # Number of requests hitting in the snoop filter with a single holder of the requested data.
system.l2bus.snoop_filter.hit_single_snoops          436                       # Number of snoops hitting in the snoop filter with a single holder of the requested data.
system.l2bus.snoop_filter.tot_requests          38772                       # Total number of requests made to the snoop filter.
system.l2bus.snoop_filter.tot_snoops              437                       # Total number of snoops made to the snoop filter.
system.l2cache.prefetcher.num_hwpf_issued          660                       # number of hwpf issued
system.l2cache.prefetcher.pfBufferHit               0                       # number of redundant prefetches already in prefetch queue
system.l2cache.prefetcher.pfIdentified            660                       # number of prefetch candidates identified
system.l2cache.prefetcher.pfInCache                 0                       # number of redundant prefetches already in cache/mshr dropped
system.l2cache.prefetcher.pfRemovedFull             0                       # number of prefetches dropped due to prefetch queue size
system.l2cache.prefetcher.pfSpanPage               92                       # number of prefetches that crossed the page
system.membus.snoop_filter.hit_multi_requests            0                       # Number of requests hitting in the snoop filter with multiple (>1) holders of the requested data.
system.membus.snoop_filter.hit_multi_snoops            0                       # Number of snoops hitting in the snoop filter with multiple (>1) holders of the requested data.
system.membus.snoop_filter.hit_single_requests         9520                       # Number of requests hitting in the snoop filter with a single holder of the requested data.
system.membus.snoop_filter.hit_single_snoops            0                       # Number of snoops hitting in the snoop filter with a single holder of the requested data.
system.membus.snoop_filter.tot_requests         23165                       # Total number of requests made to the snoop filter.
system.membus.snoop_filter.tot_snoops               0                       # Total number of snoops made to the snoop filter.
system.membus.pwrStateResidencyTicks::UNDEFINED   1205807200                       # Cumulative time (in ticks) in various power states
system.membus.trans_dist::ReadResp              12340                       # Transaction distribution
system.membus.trans_dist::WritebackDirty         1343                       # Transaction distribution
system.membus.trans_dist::CleanEvict             8177                       # Transaction distribution
system.membus.trans_dist::ReadExReq              1305                       # Transaction distribution
system.membus.trans_dist::ReadExResp             1305                       # Transaction distribution
system.membus.trans_dist::ReadSharedReq         12340                       # Transaction distribution
system.membus.pkt_count_system.l2cache.mem_side::system.mem_ctrl.port        36810                       # Packet count per connected master and slave (bytes)
system.membus.pkt_count_system.l2cache.mem_side::total        36810                       # Packet count per connected master and slave (bytes)
system.membus.pkt_count::total                  36810                       # Packet count per connected master and slave (bytes)
system.membus.pkt_size_system.l2cache.mem_side::system.mem_ctrl.port       959232                       # Cumulative packet size per connected master and slave (bytes)
system.membus.pkt_size_system.l2cache.mem_side::total       959232                       # Cumulative packet size per connected master and slave (bytes)
system.membus.pkt_size::total                  959232                       # Cumulative packet size per connected master and slave (bytes)
system.membus.snoops                                0                       # Total snoops (count)
system.membus.snoopTraffic                          0                       # Total snoop traffic (bytes)
system.membus.snoop_fanout::samples             13645                       # Request fanout histogram
system.membus.snoop_fanout::mean                    0                       # Request fanout histogram
system.membus.snoop_fanout::stdev                   0                       # Request fanout histogram
system.membus.snoop_fanout::underflows              0      0.00%      0.00% # Request fanout histogram
system.membus.snoop_fanout::0                   13645    100.00%    100.00% # Request fanout histogram
system.membus.snoop_fanout::1                       0      0.00%    100.00% # Request fanout histogram
system.membus.snoop_fanout::overflows               0      0.00%    100.00% # Request fanout histogram
system.membus.snoop_fanout::min_value               0                       # Request fanout histogram
system.membus.snoop_fanout::max_value               0                       # Request fanout histogram
system.membus.snoop_fanout::total               13645                       # Request fanout histogram
system.membus.reqLayer2.occupancy            11440547                       # Layer occupancy (ticks)
system.membus.reqLayer2.utilization               0.9                       # Layer utilization (%)
system.membus.respLayer0.occupancy           29628053                       # Layer occupancy (ticks)
system.membus.respLayer0.utilization              2.5                       # Layer utilization (%)
system.l2bus.pwrStateResidencyTicks::UNDEFINED   1205807200                       # Cumulative time (in ticks) in various power states
system.l2bus.trans_dist::ReadResp               17986                       # Transaction distribution
system.l2bus.trans_dist::WritebackDirty          4147                       # Transaction distribution
system.l2bus.trans_dist::CleanEvict             24207                       # Transaction distribution
system.l2bus.trans_dist::HardPFReq                934                       # Transaction distribution
system.l2bus.trans_dist::ReadExReq               2040                       # Transaction distribution
system.l2bus.trans_dist::ReadExResp              2040                       # Transaction distribution
system.l2bus.trans_dist::ReadSharedReq          17986                       # Transaction distribution
system.l2bus.pkt_count_system.cpu.icache.mem_side::system.l2cache.cpu_side         9158                       # Packet count per connected master and slave (bytes)
system.l2bus.pkt_count_system.cpu.dcache.mem_side::system.l2cache.cpu_side        49637                       # Packet count per connected master and slave (bytes)
system.l2bus.pkt_count::total                   58795                       # Packet count per connected master and slave (bytes)
system.l2bus.pkt_size_system.cpu.icache.mem_side::system.l2cache.cpu_side       200704                       # Cumulative packet size per connected master and slave (bytes)
system.l2bus.pkt_size_system.cpu.dcache.mem_side::system.l2cache.cpu_side      1260224                       # Cumulative packet size per connected master and slave (bytes)
system.l2bus.pkt_size::total                  1460928                       # Cumulative packet size per connected master and slave (bytes)
system.l2bus.snoops                             10545                       # Total snoops (count)
system.l2bus.snoopTraffic                       86144                       # Total snoop traffic (bytes)
system.l2bus.snoop_fanout::samples              30568                       # Request fanout histogram
system.l2bus.snoop_fanout::mean              0.015212                       # Request fanout histogram
system.l2bus.snoop_fanout::stdev             0.122664                       # Request fanout histogram
system.l2bus.snoop_fanout::underflows               0      0.00%      0.00% # Request fanout histogram
system.l2bus.snoop_fanout::0                    30104     98.48%     98.48% # Request fanout histogram
system.l2bus.snoop_fanout::1                      463      1.51%    100.00% # Request fanout histogram
system.l2bus.snoop_fanout::2                        1      0.00%    100.00% # Request fanout histogram
system.l2bus.snoop_fanout::overflows                0      0.00%    100.00% # Request fanout histogram
system.l2bus.snoop_fanout::min_value                0                       # Request fanout histogram
system.l2bus.snoop_fanout::max_value                2                       # Request fanout histogram
system.l2bus.snoop_fanout::total                30568                       # Request fanout histogram
system.l2bus.respLayer1.occupancy            20265198                       # Layer occupancy (ticks)
system.l2bus.respLayer1.utilization               1.7                       # Layer utilization (%)
system.l2bus.reqLayer0.occupancy             19127247                       # Layer occupancy (ticks)
system.l2bus.reqLayer0.utilization                1.6                       # Layer utilization (%)
system.l2bus.respLayer0.occupancy             3767598                       # Layer occupancy (ticks)
system.l2bus.respLayer0.utilization               0.3                       # Layer utilization (%)
system.clk_domain.clock                           400                       # Clock period in ticks
system.clk_domain.voltage_domain.voltage            1                       # Voltage in Volts
system.cpu.pwrStateResidencyTicks::ON      1205807200                       # Cumulative time (in ticks) in various power states
system.cpu.icache.pwrStateResidencyTicks::UNDEFINED   1205807200                       # Cumulative time (in ticks) in various power states
system.cpu.icache.demand_hits::.cpu.inst       294112                       # number of demand (read+write) hits
system.cpu.icache.demand_hits::total           294112                       # number of demand (read+write) hits
system.cpu.icache.overall_hits::.cpu.inst       294112                       # number of overall hits
system.cpu.icache.overall_hits::total          294112                       # number of overall hits
system.cpu.icache.demand_misses::.cpu.inst         3878                       # number of demand (read+write) misses
system.cpu.icache.demand_misses::total           3878                       # number of demand (read+write) misses
system.cpu.icache.overall_misses::.cpu.inst         3878                       # number of overall misses
system.cpu.icache.overall_misses::total          3878                       # number of overall misses
system.cpu.icache.demand_miss_latency::.cpu.inst    185478000                       # number of demand (read+write) miss cycles
system.cpu.icache.demand_miss_latency::total    185478000                       # number of demand (read+write) miss cycles
system.cpu.icache.overall_miss_latency::.cpu.inst    185478000                       # number of overall miss cycles
system.cpu.icache.overall_miss_latency::total    185478000                       # number of overall miss cycles
system.cpu.icache.demand_accesses::.cpu.inst       297990                       # number of demand (read+write) accesses
system.cpu.icache.demand_accesses::total       297990                       # number of demand (read+write) accesses
system.cpu.icache.overall_accesses::.cpu.inst       297990                       # number of overall (read+write) accesses
system.cpu.icache.overall_accesses::total       297990                       # number of overall (read+write) accesses
system.cpu.icache.demand_miss_rate::.cpu.inst     0.013014                       # miss rate for demand accesses
system.cpu.icache.demand_miss_rate::total     0.013014                       # miss rate for demand accesses
system.cpu.icache.overall_miss_rate::.cpu.inst     0.013014                       # miss rate for overall accesses
system.cpu.icache.overall_miss_rate::total     0.013014                       # miss rate for overall accesses
system.cpu.icache.demand_avg_miss_latency::.cpu.inst 47828.261991                       # average overall miss latency
system.cpu.icache.demand_avg_miss_latency::total 47828.261991                       # average overall miss latency
system.cpu.icache.overall_avg_miss_latency::.cpu.inst 47828.261991                       # average overall miss latency
system.cpu.icache.overall_avg_miss_latency::total 47828.261991                       # average overall miss latency
system.cpu.icache.blocked_cycles::no_mshrs          228                       # number of cycles access was blocked
system.cpu.icache.blocked_cycles::no_targets            0                       # number of cycles access was blocked
system.cpu.icache.blocked::no_mshrs                 6                       # number of cycles access was blocked
system.cpu.icache.blocked::no_targets               0                       # number of cycles access was blocked
system.cpu.icache.avg_blocked_cycles::no_mshrs           38                       # average number of cycles each access was blocked
system.cpu.icache.avg_blocked_cycles::no_targets          nan                       # average number of cycles each access was blocked
system.cpu.icache.demand_mshr_hits::.cpu.inst          739                       # number of demand (read+write) MSHR hits
system.cpu.icache.demand_mshr_hits::total          739                       # number of demand (read+write) MSHR hits
system.cpu.icache.overall_mshr_hits::.cpu.inst          739                       # number of overall MSHR hits
system.cpu.icache.overall_mshr_hits::total          739                       # number of overall MSHR hits
system.cpu.icache.demand_mshr_misses::.cpu.inst         3139                       # number of demand (read+write) MSHR misses
system.cpu.icache.demand_mshr_misses::total         3139                       # number of demand (read+write) MSHR misses
system.cpu.icache.overall_mshr_misses::.cpu.inst         3139                       # number of overall MSHR misses
system.cpu.icache.overall_mshr_misses::total         3139                       # number of overall MSHR misses
system.cpu.icache.demand_mshr_miss_latency::.cpu.inst    149492000                       # number of demand (read+write) MSHR miss cycles
system.cpu.icache.demand_mshr_miss_latency::total    149492000                       # number of demand (read+write) MSHR miss cycles
system.cpu.icache.overall_mshr_miss_latency::.cpu.inst    149492000                       # number of overall MSHR miss cycles
system.cpu.icache.overall_mshr_miss_latency::total    149492000                       # number of overall MSHR miss cycles
system.cpu.icache.demand_mshr_miss_rate::.cpu.inst     0.010534                       # mshr miss rate for demand accesses
system.cpu.icache.demand_mshr_miss_rate::total     0.010534                       # mshr miss rate for demand accesses
system.cpu.icache.overall_mshr_miss_rate::.cpu.inst     0.010534                       # mshr miss rate for overall accesses
system.cpu.icache.overall_mshr_miss_rate::total     0.010534                       # mshr miss rate for overall accesses
system.cpu.icache.demand_avg_mshr_miss_latency::.cpu.inst 47624.084103                       # average overall mshr miss latency
system.cpu.icache.demand_avg_mshr_miss_latency::total 47624.084103                       # average overall mshr miss latency
system.cpu.icache.overall_avg_mshr_miss_latency::.cpu.inst 47624.084103                       # average overall mshr miss latency
system.cpu.icache.overall_avg_mshr_miss_latency::total 47624.084103                       # average overall mshr miss latency
system.cpu.icache.replacements                   2883                       # number of replacements
system.cpu.icache.ReadReq_hits::.cpu.inst       294112                       # number of ReadReq hits
system.cpu.icache.ReadReq_hits::total          294112                       # number of ReadReq hits
system.cpu.icache.ReadReq_misses::.cpu.inst         3878                       # number of ReadReq misses
system.cpu.icache.ReadReq_misses::total          3878                       # number of ReadReq misses
system.cpu.icache.ReadReq_miss_latency::.cpu.inst    185478000                       # number of ReadReq miss cycles
system.cpu.icache.ReadReq_miss_latency::total    185478000                       # number of ReadReq miss cycles
system.cpu.icache.ReadReq_accesses::.cpu.inst       297990                       # number of ReadReq accesses(hits+misses)
system.cpu.icache.ReadReq_accesses::total       297990                       # number of ReadReq accesses(hits+misses)
system.cpu.icache.ReadReq_miss_rate::.cpu.inst     0.013014                       # miss rate for ReadReq accesses
system.cpu.icache.ReadReq_miss_rate::total     0.013014                       # miss rate for ReadReq accesses
system.cpu.icache.ReadReq_avg_miss_latency::.cpu.inst 47828.261991                       # average ReadReq miss latency
system.cpu.icache.ReadReq_avg_miss_latency::total 47828.261991                       # average ReadReq miss latency
system.cpu.icache.ReadReq_mshr_hits::.cpu.inst          739                       # number of ReadReq MSHR hits
system.cpu.icache.ReadReq_mshr_hits::total          739                       # number of ReadReq MSHR hits
system.cpu.icache.ReadReq_mshr_misses::.cpu.inst         3139                       # number of ReadReq MSHR misses
system.cpu.icache.ReadReq_mshr_misses::total         3139                       # number of ReadReq MSHR misses
system.cpu.icache.ReadReq_mshr_miss_latency::.cpu.inst    149492000                       # number of ReadReq MSHR miss cycles
system.cpu.icache.ReadReq_mshr_miss_latency::total    149492000                       # number of ReadReq MSHR miss cycles
system.cpu.icache.ReadReq_mshr_miss_rate::.cpu.inst     0.010534                       # mshr miss rate for ReadReq accesses
system.cpu.icache.ReadReq_mshr_miss_rate::total     0.010534                       # mshr miss rate for ReadReq accesses
system.cpu.icache.ReadReq_avg_mshr_miss_latency::.cpu.inst 47624.084103                       # average ReadReq mshr miss latency
system.cpu.icache.ReadReq_avg_mshr_miss_latency::total 47624.084103                       # average ReadReq mshr miss latency
system.cpu.icache.prefetcher.pwrStateResidencyTicks::UNDEFINED   1205807200                       # Cumulative time (in ticks) in various power states
system.cpu.icache.tags.pwrStateResidencyTicks::UNDEFINED   1205807200                       # Cumulative time (in ticks) in various power states
system.cpu.icache.tags.tagsinuse           253.724047                       # Cycle average of tags in use
system.cpu.icache.tags.total_refs              250000                       # Total number of references to valid blocks.
system.cpu.icache.tags.sampled_refs              2883                       # Sample count of references to valid blocks.
system.cpu.icache.tags.avg_refs             86.715227                       # Average number of references to valid blocks.
system.cpu.icache.tags.warmup_cycle             66400                       # Cycle when the warmup percentage was hit.
system.cpu.icache.tags.occ_blocks::.cpu.inst   253.724047                       # Average occupied blocks per requestor
system.cpu.icache.tags.occ_percent::.cpu.inst     0.991110                       # Average percentage of cache occupancy
system.cpu.icache.tags.occ_percent::total     0.991110                       # Average percentage of cache occupancy
system.cpu.icache.tags.occ_task_id_blocks::1024          256                       # Occupied blocks per task id
system.cpu.icache.tags.age_task_id_blocks_1024::0           82                       # Occupied blocks per task id
system.cpu.icache.tags.age_task_id_blocks_1024::1            6                       # Occupied blocks per task id
system.cpu.icache.tags.age_task_id_blocks_1024::2          164                       # Occupied blocks per task id
system.cpu.icache.tags.age_task_id_blocks_1024::3            4                       # Occupied blocks per task id
system.cpu.icache.tags.occ_task_id_percent::1024            1                       # Percentage of cache occupancy per task id
system.cpu.icache.tags.tag_accesses            599119                       # Number of tag accesses
system.cpu.icache.tags.data_accesses           599119                       # Number of data accesses
system.cpu.dtb.walker.pwrStateResidencyTicks::UNDEFINED   1205807200                       # Cumulative time (in ticks) in various power states
system.cpu.interrupts.clk_domain.clock           6400                       # Clock period in ticks
system.cpu.itb.walker.pwrStateResidencyTicks::UNDEFINED   1205807200                       # Cumulative time (in ticks) in various power states
system.cpu.dcache.pwrStateResidencyTicks::UNDEFINED   1205807200                       # Cumulative time (in ticks) in various power states
system.cpu.dcache.demand_hits::.cpu.data       830542                       # number of demand (read+write) hits
system.cpu.dcache.demand_hits::total           830542                       # number of demand (read+write) hits
system.cpu.dcache.overall_hits::.cpu.data       830542                       # number of overall hits
system.cpu.dcache.overall_hits::total          830542                       # number of overall hits
system.cpu.dcache.demand_misses::.cpu.data        35113                       # number of demand (read+write) misses
system.cpu.dcache.demand_misses::total          35113                       # number of demand (read+write) misses
system.cpu.dcache.overall_misses::.cpu.data        35113                       # number of overall misses
system.cpu.dcache.overall_misses::total         35113                       # number of overall misses
system.cpu.dcache.demand_miss_latency::.cpu.data   1696344800                       # number of demand (read+write) miss cycles
system.cpu.dcache.demand_miss_latency::total   1696344800                       # number of demand (read+write) miss cycles
system.cpu.dcache.overall_miss_latency::.cpu.data   1696344800                       # number of overall miss cycles
system.cpu.dcache.overall_miss_latency::total   1696344800                       # number of overall miss cycles
system.cpu.dcache.demand_accesses::.cpu.data       865655                       # number of demand (read+write) accesses
system.cpu.dcache.demand_accesses::total       865655                       # number of demand (read+write) accesses
system.cpu.dcache.overall_accesses::.cpu.data       865655                       # number of overall (read+write) accesses
system.cpu.dcache.overall_accesses::total       865655                       # number of overall (read+write) accesses
system.cpu.dcache.demand_miss_rate::.cpu.data     0.040562                       # miss rate for demand accesses
system.cpu.dcache.demand_miss_rate::total     0.040562                       # miss rate for demand accesses
system.cpu.dcache.overall_miss_rate::.cpu.data     0.040562                       # miss rate for overall accesses
system.cpu.dcache.overall_miss_rate::total     0.040562                       # miss rate for overall accesses
system.cpu.dcache.demand_avg_miss_latency::.cpu.data 48311.018711                       # average overall miss latency
system.cpu.dcache.demand_avg_miss_latency::total 48311.018711                       # average overall miss latency
system.cpu.dcache.overall_avg_miss_latency::.cpu.data 48311.018711                       # average overall miss latency
system.cpu.dcache.overall_avg_miss_latency::total 48311.018711                       # average overall miss latency
system.cpu.dcache.blocked_cycles::no_mshrs        27664                       # number of cycles access was blocked
system.cpu.dcache.blocked_cycles::no_targets          156                       # number of cycles access was blocked
system.cpu.dcache.blocked::no_mshrs               721                       # number of cycles access was blocked
system.cpu.dcache.blocked::no_targets               2                       # number of cycles access was blocked
system.cpu.dcache.avg_blocked_cycles::no_mshrs    38.368932                       # average number of cycles each access was blocked
system.cpu.dcache.avg_blocked_cycles::no_targets           78                       # average number of cycles each access was blocked
system.cpu.dcache.unused_prefetches              1674                       # number of HardPF blocks evicted w/o reference
system.cpu.dcache.writebacks::.writebacks         2804                       # number of writebacks
system.cpu.dcache.writebacks::total              2804                       # number of writebacks
system.cpu.dcache.demand_mshr_hits::.cpu.data        22400                       # number of demand (read+write) MSHR hits
system.cpu.dcache.demand_mshr_hits::total        22400                       # number of demand (read+write) MSHR hits
system.cpu.dcache.overall_mshr_hits::.cpu.data        22400                       # number of overall MSHR hits
system.cpu.dcache.overall_mshr_hits::total        22400                       # number of overall MSHR hits
system.cpu.dcache.demand_mshr_misses::.cpu.data        12713                       # number of demand (read+write) MSHR misses
system.cpu.dcache.demand_mshr_misses::total        12713                       # number of demand (read+write) MSHR misses
system.cpu.dcache.overall_mshr_misses::.cpu.data        12713                       # number of overall MSHR misses
system.cpu.dcache.overall_mshr_misses::.cpu.dcache.prefetcher         4174                       # number of overall MSHR misses
system.cpu.dcache.overall_mshr_misses::total        16887                       # number of overall MSHR misses
system.cpu.dcache.demand_mshr_miss_latency::.cpu.data    580029600                       # number of demand (read+write) MSHR miss cycles
system.cpu.dcache.demand_mshr_miss_latency::total    580029600                       # number of demand (read+write) MSHR miss cycles
system.cpu.dcache.overall_mshr_miss_latency::.cpu.data    580029600                       # number of overall MSHR miss cycles
system.cpu.dcache.overall_mshr_miss_latency::.cpu.dcache.prefetcher    249237559                       # number of overall MSHR miss cycles
system.cpu.dcache.overall_mshr_miss_latency::total    829267159                       # number of overall MSHR miss cycles
system.cpu.dcache.demand_mshr_miss_rate::.cpu.data     0.014686                       # mshr miss rate for demand accesses
system.cpu.dcache.demand_mshr_miss_rate::total     0.014686                       # mshr miss rate for demand accesses
system.cpu.dcache.overall_mshr_miss_rate::.cpu.data     0.014686                       # mshr miss rate for overall accesses
system.cpu.dcache.overall_mshr_miss_rate::.cpu.dcache.prefetcher          inf                       # mshr miss rate for overall accesses
system.cpu.dcache.overall_mshr_miss_rate::total     0.019508                       # mshr miss rate for overall accesses
system.cpu.dcache.demand_avg_mshr_miss_latency::.cpu.data 45624.919374                       # average overall mshr miss latency
system.cpu.dcache.demand_avg_mshr_miss_latency::total 45624.919374                       # average overall mshr miss latency
system.cpu.dcache.overall_avg_mshr_miss_latency::.cpu.data 45624.919374                       # average overall mshr miss latency
system.cpu.dcache.overall_avg_mshr_miss_latency::.cpu.dcache.prefetcher 59711.921179                       # average overall mshr miss latency
system.cpu.dcache.overall_avg_mshr_miss_latency::total 49106.837153                       # average overall mshr miss latency
system.cpu.dcache.replacements                  15863                       # number of replacements
system.cpu.dcache.ReadReq_hits::.cpu.data       610051                       # number of ReadReq hits
system.cpu.dcache.ReadReq_hits::total          610051                       # number of ReadReq hits
system.cpu.dcache.ReadReq_misses::.cpu.data        33036                       # number of ReadReq misses
system.cpu.dcache.ReadReq_misses::total         33036                       # number of ReadReq misses
system.cpu.dcache.ReadReq_miss_latency::.cpu.data   1594285200                       # number of ReadReq miss cycles
system.cpu.dcache.ReadReq_miss_latency::total   1594285200                       # number of ReadReq miss cycles
system.cpu.dcache.ReadReq_accesses::.cpu.data       643087                       # number of ReadReq accesses(hits+misses)
system.cpu.dcache.ReadReq_accesses::total       643087                       # number of ReadReq accesses(hits+misses)
system.cpu.dcache.ReadReq_miss_rate::.cpu.data     0.051371                       # miss rate for ReadReq accesses
system.cpu.dcache.ReadReq_miss_rate::total     0.051371                       # miss rate for ReadReq accesses
system.cpu.dcache.ReadReq_avg_miss_latency::.cpu.data 48259.026517                       # average ReadReq miss latency
system.cpu.dcache.ReadReq_avg_miss_latency::total 48259.026517                       # average ReadReq miss latency
system.cpu.dcache.ReadReq_mshr_hits::.cpu.data        22363                       # number of ReadReq MSHR hits
system.cpu.dcache.ReadReq_mshr_hits::total        22363                       # number of ReadReq MSHR hits
system.cpu.dcache.ReadReq_mshr_misses::.cpu.data        10673                       # number of ReadReq MSHR misses
system.cpu.dcache.ReadReq_mshr_misses::total        10673                       # number of ReadReq MSHR misses
system.cpu.dcache.ReadReq_mshr_miss_latency::.cpu.data    480868000                       # number of ReadReq MSHR miss cycles
system.cpu.dcache.ReadReq_mshr_miss_latency::total    480868000                       # number of ReadReq MSHR miss cycles
system.cpu.dcache.ReadReq_mshr_miss_rate::.cpu.data     0.016597                       # mshr miss rate for ReadReq accesses
system.cpu.dcache.ReadReq_mshr_miss_rate::total     0.016597                       # mshr miss rate for ReadReq accesses
system.cpu.dcache.ReadReq_avg_mshr_miss_latency::.cpu.data 45054.623817                       # average ReadReq mshr miss latency
system.cpu.dcache.ReadReq_avg_mshr_miss_latency::total 45054.623817                       # average ReadReq mshr miss latency
system.cpu.dcache.WriteReq_hits::.cpu.data       220491                       # number of WriteReq hits
system.cpu.dcache.WriteReq_hits::total         220491                       # number of WriteReq hits
system.cpu.dcache.WriteReq_misses::.cpu.data         2077                       # number of WriteReq misses
system.cpu.dcache.WriteReq_misses::total         2077                       # number of WriteReq misses
system.cpu.dcache.WriteReq_miss_latency::.cpu.data    102059600                       # number of WriteReq miss cycles
system.cpu.dcache.WriteReq_miss_latency::total    102059600                       # number of WriteReq miss cycles
system.cpu.dcache.WriteReq_accesses::.cpu.data       222568                       # number of WriteReq accesses(hits+misses)
system.cpu.dcache.WriteReq_accesses::total       222568                       # number of WriteReq accesses(hits+misses)
system.cpu.dcache.WriteReq_miss_rate::.cpu.data     0.009332                       # miss rate for WriteReq accesses
system.cpu.dcache.WriteReq_miss_rate::total     0.009332                       # miss rate for WriteReq accesses
system.cpu.dcache.WriteReq_avg_miss_latency::.cpu.data 49137.987482                       # average WriteReq miss latency
system.cpu.dcache.WriteReq_avg_miss_latency::total 49137.987482                       # average WriteReq miss latency
system.cpu.dcache.WriteReq_mshr_hits::.cpu.data           37                       # number of WriteReq MSHR hits
system.cpu.dcache.WriteReq_mshr_hits::total           37                       # number of WriteReq MSHR hits
system.cpu.dcache.WriteReq_mshr_misses::.cpu.data         2040                       # number of WriteReq MSHR misses
system.cpu.dcache.WriteReq_mshr_misses::total         2040                       # number of WriteReq MSHR misses
[...]
system.l2cache.overall_mshr_miss_latency::total     15403983                       # number of overall MSHR miss cycles
system.l2cache.demand_mshr_miss_rate::.cpu.inst     0.344828                       # mshr miss rate for demand accesses
system.l2cache.demand_mshr_miss_rate::.cpu.data     0.534161                       # mshr miss rate for demand accesses
system.l2cache.demand_mshr_miss_rate::.cpu.dcache.prefetcher     0.777778                       # mshr miss rate for demand accesses
system.l2cache.demand_mshr_miss_rate::total     0.404355                       # mshr miss rate for demand accesses
system.l2cache.overall_mshr_miss_rate::.cpu.inst     0.344828                       # mshr miss rate for overall accesses
system.l2cache.overall_mshr_miss_rate::.cpu.data     0.534161                       # mshr miss rate for overall accesses
system.l2cache.overall_mshr_miss_rate::.cpu.dcache.prefetcher     0.777778                       # mshr miss rate for overall accesses
system.l2cache.overall_mshr_miss_rate::.l2cache.prefetcher          inf                       # mshr miss rate for overall accesses
system.l2cache.overall_mshr_miss_rate::total     0.409020                       # mshr miss rate for overall accesses
system.l2cache.demand_avg_mshr_miss_latency::.cpu.inst 59212.500000                       # average overall mshr miss latency
system.l2cache.demand_avg_mshr_miss_latency::.cpu.data 57609.302326                       # average overall mshr miss latency
system.l2cache.demand_avg_mshr_miss_latency::.cpu.dcache.prefetcher 57941.785714                       # average overall mshr miss latency
system.l2cache.demand_avg_mshr_miss_latency::total 58613.788462                       # average overall mshr miss latency
system.l2cache.overall_avg_mshr_miss_latency::.cpu.inst 59212.500000                       # average overall mshr miss latency
system.l2cache.overall_avg_mshr_miss_latency::.cpu.data 57609.302326                       # average overall mshr miss latency
system.l2cache.overall_avg_mshr_miss_latency::.cpu.dcache.prefetcher 57941.785714                       # average overall mshr miss latency
system.l2cache.overall_avg_mshr_miss_latency::.l2cache.prefetcher 54799.333333                       # average overall mshr miss latency
system.l2cache.overall_avg_mshr_miss_latency::total 58570.277567                       # average overall mshr miss latency
system.l2cache.replacements                       268                       # number of replacements
system.l2cache.WritebackDirty_hits::.writebacks           47                       # number of WritebackDirty hits
system.l2cache.WritebackDirty_hits::total           47                       # number of WritebackDirty hits
system.l2cache.WritebackDirty_accesses::.writebacks           47                       # number of WritebackDirty accesses(hits+misses)
system.l2cache.WritebackDirty_accesses::total           47                       # number of WritebackDirty accesses(hits+misses)
system.l2cache.CleanEvict_mshr_misses::.writebacks            5                       # number of CleanEvict MSHR misses
system.l2cache.CleanEvict_mshr_misses::total            5                       # number of CleanEvict MSHR misses
system.l2cache.CleanEvict_mshr_miss_rate::.writebacks          inf                       # mshr miss rate for CleanEvict accesses
system.l2cache.CleanEvict_mshr_miss_rate::total          inf                       # mshr miss rate for CleanEvict accesses
system.l2cache.HardPFReq_mshr_misses::.l2cache.prefetcher            3                       # number of HardPFReq MSHR misses
system.l2cache.HardPFReq_mshr_misses::total            3                       # number of HardPFReq MSHR misses
system.l2cache.HardPFReq_mshr_miss_latency::.l2cache.prefetcher       164398                       # number of HardPFReq MSHR miss cycles
system.l2cache.HardPFReq_mshr_miss_latency::total       164398                       # number of HardPFReq MSHR miss cycles
system.l2cache.HardPFReq_mshr_miss_rate::.l2cache.prefetcher          inf                       # mshr miss rate for HardPFReq accesses
system.l2cache.HardPFReq_mshr_miss_rate::total          inf                       # mshr miss rate for HardPFReq accesses
system.l2cache.HardPFReq_avg_mshr_miss_latency::.l2cache.prefetcher 54799.333333                       # average HardPFReq mshr miss latency
system.l2cache.HardPFReq_avg_mshr_miss_latency::total 54799.333333                       # average HardPFReq mshr miss latency
system.l2cache.ReadExReq_hits::.cpu.data            3                       # number of ReadExReq hits
system.l2cache.ReadExReq_hits::total                3                       # number of ReadExReq hits
system.l2cache.ReadExReq_misses::.cpu.data            5                       # number of ReadExReq misses
system.l2cache.ReadExReq_misses::total              5                       # number of ReadExReq misses
system.l2cache.ReadExReq_miss_latency::.cpu.data       332800                       # number of ReadExReq miss cycles
system.l2cache.ReadExReq_miss_latency::total       332800                       # number of ReadExReq miss cycles
system.l2cache.ReadExReq_accesses::.cpu.data            8                       # number of ReadExReq accesses(hits+misses)
system.l2cache.ReadExReq_accesses::total            8                       # number of ReadExReq accesses(hits+misses)
system.l2cache.ReadExReq_miss_rate::.cpu.data     0.625000                       # miss rate for ReadExReq accesses
system.l2cache.ReadExReq_miss_rate::total     0.625000                       # miss rate for ReadExReq accesses
system.l2cache.ReadExReq_avg_miss_latency::.cpu.data        66560                       # average ReadExReq miss latency
system.l2cache.ReadExReq_avg_miss_latency::total        66560                       # average ReadExReq miss latency
system.l2cache.ReadExReq_mshr_misses::.cpu.data            5                       # number of ReadExReq MSHR misses
system.l2cache.ReadExReq_mshr_misses::total            5                       # number of ReadExReq MSHR misses
system.l2cache.ReadExReq_mshr_miss_latency::.cpu.data       292800                       # number of ReadExReq MSHR miss cycles
system.l2cache.ReadExReq_mshr_miss_latency::total       292800                       # number of ReadExReq MSHR miss cycles
system.l2cache.ReadExReq_mshr_miss_rate::.cpu.data     0.625000                       # mshr miss rate for ReadExReq accesses
system.l2cache.ReadExReq_mshr_miss_rate::total     0.625000                       # mshr miss rate for ReadExReq accesses
system.l2cache.ReadExReq_avg_mshr_miss_latency::.cpu.data        58560                       # average ReadExReq mshr miss latency
system.l2cache.ReadExReq_avg_mshr_miss_latency::total        58560                       # average ReadExReq mshr miss latency
system.l2cache.ReadSharedReq_hits::.cpu.inst          304                       # number of ReadSharedReq hits
system.l2cache.ReadSharedReq_hits::.cpu.data           72                       # number of ReadSharedReq hits
system.l2cache.ReadSharedReq_hits::.cpu.dcache.prefetcher            4                       # number of ReadSharedReq hits
system.l2cache.ReadSharedReq_hits::total          380                       # number of ReadSharedReq hits
system.l2cache.ReadSharedReq_misses::.cpu.inst          160                       # number of ReadSharedReq misses
system.l2cache.ReadSharedReq_misses::.cpu.data           81                       # number of ReadSharedReq misses
system.l2cache.ReadSharedReq_misses::.cpu.dcache.prefetcher           14                       # number of ReadSharedReq misses
system.l2cache.ReadSharedReq_misses::total          255                       # number of ReadSharedReq misses
system.l2cache.ReadSharedReq_miss_latency::.cpu.inst     10746000                       # number of ReadSharedReq miss cycles
system.l2cache.ReadSharedReq_miss_latency::.cpu.data      5309600                       # number of ReadSharedReq miss cycles
system.l2cache.ReadSharedReq_miss_latency::.cpu.dcache.prefetcher       923185                       # number of ReadSharedReq miss cycles
system.l2cache.ReadSharedReq_miss_latency::total     16978785                       # number of ReadSharedReq miss cycles
system.l2cache.ReadSharedReq_accesses::.cpu.inst          464                       # number of ReadSharedReq accesses(hits+misses)
system.l2cache.ReadSharedReq_accesses::.cpu.data          153                       # number of ReadSharedReq accesses(hits+misses)
system.l2cache.ReadSharedReq_accesses::.cpu.dcache.prefetcher           18                       # number of ReadSharedReq accesses(hits+misses)
system.l2cache.ReadSharedReq_accesses::total          635                       # number of ReadSharedReq accesses(hits+misses)
system.l2cache.ReadSharedReq_miss_rate::.cpu.inst     0.344828                       # miss rate for ReadSharedReq accesses
system.l2cache.ReadSharedReq_miss_rate::.cpu.data     0.529412                       # miss rate for ReadSharedReq accesses
system.l2cache.ReadSharedReq_miss_rate::.cpu.dcache.prefetcher     0.777778                       # miss rate for ReadSharedReq accesses
system.l2cache.ReadSharedReq_miss_rate::total     0.401575                       # miss rate for ReadSharedReq accesses
system.l2cache.ReadSharedReq_avg_miss_latency::.cpu.inst 67162.500000                       # average ReadSharedReq miss latency
system.l2cache.ReadSharedReq_avg_miss_latency::.cpu.data 65550.617284                       # average ReadSharedReq miss latency
system.l2cache.ReadSharedReq_avg_miss_latency::.cpu.dcache.prefetcher 65941.785714                       # average ReadSharedReq miss latency
system.l2cache.ReadSharedReq_avg_miss_latency::total 66583.470588                       # average ReadSharedReq miss latency
system.l2cache.ReadSharedReq_mshr_misses::.cpu.inst          160                       # number of ReadSharedReq MSHR misses
system.l2cache.ReadSharedReq_mshr_misses::.cpu.data           81                       # number of ReadSharedReq MSHR misses
system.l2cache.ReadSharedReq_mshr_misses::.cpu.dcache.prefetcher           14                       # number of ReadSharedReq MSHR misses
system.l2cache.ReadSharedReq_mshr_misses::total          255                       # number of ReadSharedReq MSHR misses
system.l2cache.ReadSharedReq_mshr_miss_latency::.cpu.inst      9474000                       # number of ReadSharedReq MSHR miss cycles
system.l2cache.ReadSharedReq_mshr_miss_latency::.cpu.data      4661600                       # number of ReadSharedReq MSHR miss cycles
system.l2cache.ReadSharedReq_mshr_miss_latency::.cpu.dcache.prefetcher       811185                       # number of ReadSharedReq MSHR miss cycles
system.l2cache.ReadSharedReq_mshr_miss_latency::total     14946785                       # number of ReadSharedReq MSHR miss cycles
system.l2cache.ReadSharedReq_mshr_miss_rate::.cpu.inst     0.344828                       # mshr miss rate for ReadSharedReq accesses
system.l2cache.ReadSharedReq_mshr_miss_rate::.cpu.data     0.529412                       # mshr miss rate for ReadSharedReq accesses
system.l2cache.ReadSharedReq_mshr_miss_rate::.cpu.dcache.prefetcher     0.777778                       # mshr miss rate for ReadSharedReq accesses
system.l2cache.ReadSharedReq_mshr_miss_rate::total     0.401575                       # mshr miss rate for ReadSharedReq accesses
system.l2cache.ReadSharedReq_avg_mshr_miss_latency::.cpu.inst 59212.500000                       # average ReadSharedReq mshr miss latency
system.l2cache.ReadSharedReq_avg_mshr_miss_latency::.cpu.data 57550.617284                       # average ReadSharedReq mshr miss latency
system.l2cache.ReadSharedReq_avg_mshr_miss_latency::.cpu.dcache.prefetcher 57941.785714                       # average ReadSharedReq mshr miss latency
system.l2cache.ReadSharedReq_avg_mshr_miss_latency::total 58614.843137                       # average ReadSharedReq mshr miss latency
system.l2cache.prefetcher.pwrStateResidencyTicks::UNDEFINED    129680400                       # Cumulative time (in ticks) in various power states
system.l2cache.tags.pwrStateResidencyTicks::UNDEFINED    129680400                       # Cumulative time (in ticks) in various power states
system.l2cache.tags.tagsinuse                    4096                       # Cycle average of tags in use
system.l2cache.tags.total_refs                  13858                       # Total number of references to valid blocks.
system.l2cache.tags.sampled_refs                 4364                       # Sample count of references to valid blocks.
system.l2cache.tags.avg_refs                 3.175527                       # Average number of references to valid blocks.
system.l2cache.tags.warmup_cycle                    0                       # Cycle when the warmup percentage was hit.
system.l2cache.tags.occ_blocks::.writebacks    40.152026                       # Average occupied blocks per requestor
system.l2cache.tags.occ_blocks::.cpu.inst  1139.717895                       # Average occupied blocks per requestor
system.l2cache.tags.occ_blocks::.cpu.data  1846.006070                       # Average occupied blocks per requestor
system.l2cache.tags.occ_blocks::.cpu.dcache.prefetcher   948.140847                       # Average occupied blocks per requestor
system.l2cache.tags.occ_blocks::.l2cache.prefetcher   121.983162                       # Average occupied blocks per requestor
system.l2cache.tags.occ_percent::.writebacks     0.009803                       # Average percentage of cache occupancy
system.l2cache.tags.occ_percent::.cpu.inst     0.278251                       # Average percentage of cache occupancy
system.l2cache.tags.occ_percent::.cpu.data     0.450685                       # Average percentage of cache occupancy
system.l2cache.tags.occ_percent::.cpu.dcache.prefetcher     0.231480                       # Average percentage of cache occupancy
system.l2cache.tags.occ_percent::.l2cache.prefetcher     0.029781                       # Average percentage of cache occupancy
system.l2cache.tags.occ_percent::total              1                       # Average percentage of cache occupancy
system.l2cache.tags.occ_task_id_blocks::1022         1026                       # Occupied blocks per task id
system.l2cache.tags.occ_task_id_blocks::1024         3070                       # Occupied blocks per task id
system.l2cache.tags.age_task_id_blocks_1022::0           10                       # Occupied blocks per task id
system.l2cache.tags.age_task_id_blocks_1022::1            1                       # Occupied blocks per task id
system.l2cache.tags.age_task_id_blocks_1022::2          989                       # Occupied blocks per task id
system.l2cache.tags.age_task_id_blocks_1022::3           26                       # Occupied blocks per task id
system.l2cache.tags.age_task_id_blocks_1024::0          170                       # Occupied blocks per task id
system.l2cache.tags.age_task_id_blocks_1024::1           38                       # Occupied blocks per task id
system.l2cache.tags.age_task_id_blocks_1024::2         2669                       # Occupied blocks per task id
system.l2cache.tags.age_task_id_blocks_1024::3          193                       # Occupied blocks per task id
system.l2cache.tags.occ_task_id_percent::1022     0.250488                       # Percentage of cache occupancy per task id
system.l2cache.tags.occ_task_id_percent::1024     0.749512                       # Percentage of cache occupancy per task id
system.l2cache.tags.tag_accesses                10516                       # Number of tag accesses
system.l2cache.tags.data_accesses               10516                       # Number of data accesses
system.mem_ctrl.pwrStateResidencyTicks::UNDEFINED    129680400                       # Cumulative time (in ticks) in various power states
system.mem_ctrl.bytes_read::.cpu.inst           10176                       # Number of bytes read from this memory
system.mem_ctrl.bytes_read::.cpu.data            5504                       # Number of bytes read from this memory
system.mem_ctrl.bytes_read::.cpu.dcache.prefetcher          896                       # Number of bytes read from this memory
system.mem_ctrl.bytes_read::.l2cache.prefetcher          192                       # Number of bytes read from this memory
system.mem_ctrl.bytes_read::total               16768                       # Number of bytes read from this memory
system.mem_ctrl.bytes_inst_read::.cpu.inst        10176                       # Number of instructions bytes read from this memory
system.mem_ctrl.bytes_inst_read::total          10176                       # Number of instructions bytes read from this memory
system.mem_ctrl.bytes_written::.writebacks         1344                       # Number of bytes written to this memory
system.mem_ctrl.bytes_written::total             1344                       # Number of bytes written to this memory
system.mem_ctrl.num_reads::.cpu.inst              159                       # Number of read requests responded to by this memory
system.mem_ctrl.num_reads::.cpu.data               86                       # Number of read requests responded to by this memory
system.mem_ctrl.num_reads::.cpu.dcache.prefetcher           14                       # Number of read requests responded to by this memory
system.mem_ctrl.num_reads::.l2cache.prefetcher            3                       # Number of read requests responded to by this memory
system.mem_ctrl.num_reads::total                  262                       # Number of read requests responded to by this memory
system.mem_ctrl.num_writes::.writebacks            21                       # Number of write requests responded to by this memory
system.mem_ctrl.num_writes::total                  21                       # Number of write requests responded to by this memory
system.mem_ctrl.bw_read::.cpu.inst           78469838                       # Total read bandwidth from this memory (bytes/s)
system.mem_ctrl.bw_read::.cpu.data           42442806                       # Total read bandwidth from this memory (bytes/s)
system.mem_ctrl.bw_read::.cpu.dcache.prefetcher      6909294                       # Total read bandwidth from this memory (bytes/s)
system.mem_ctrl.bw_read::.l2cache.prefetcher      1480563                       # Total read bandwidth from this memory (bytes/s)
system.mem_ctrl.bw_read::total              129302501                       # Total read bandwidth from this memory (bytes/s)
system.mem_ctrl.bw_inst_read::.cpu.inst      78469838                       # Instruction read bandwidth from this memory (bytes/s)
system.mem_ctrl.bw_inst_read::total          78469838                       # Instruction read bandwidth from this memory (bytes/s)
system.mem_ctrl.bw_write::.writebacks        10363941                       # Write bandwidth from this memory (bytes/s)
system.mem_ctrl.bw_write::total              10363941                       # Write bandwidth from this memory (bytes/s)
system.mem_ctrl.bw_total::.writebacks        10363941                       # Total bandwidth to/from this memory (bytes/s)
system.mem_ctrl.bw_total::.cpu.inst          78469838                       # Total bandwidth to/from this memory (bytes/s)
system.mem_ctrl.bw_total::.cpu.data          42442806                       # Total bandwidth to/from this memory (bytes/s)
system.mem_ctrl.bw_total::.cpu.dcache.prefetcher      6909294                       # Total bandwidth to/from this memory (bytes/s)
system.mem_ctrl.bw_total::.l2cache.prefetcher      1480563                       # Total bandwidth to/from this memory (bytes/s)
system.mem_ctrl.bw_total::total             139666441                       # Total bandwidth to/from this memory (bytes/s)

---------- End Simulation Statistics   ----------
