
---------- Begin Simulation Statistics ----------
final_tick                                 1121416000                       # Number of ticks from beginning of simulation (restored from checkpoints and never reset)
host_inst_rate                                 184068                       # Simulator instruction rate (inst/s)
host_mem_usage                                4406848                       # Number of bytes of host memory used
host_op_rate                                   323227                       # Simulator op (including micro ops) rate (op/s)
host_seconds                                    11.74                       # Real time elapsed on the host
host_tick_rate                               95556222                       # Simulator tick rate (ticks/s)
sim_freq                                 1000000000000                       # Frequency of simulated ticks
sim_insts                                     2160148                       # Number of instructions simulated
sim_ops                                       3793281                       # Number of ops (including micro ops) simulated
sim_seconds                                  0.001121                       # Number of seconds simulated
sim_ticks                                  1121416000                       # Number of ticks simulated
system.cpu.branchPred.BTBCorrect                    0                       # Number of correct BTB predictions (this stat may not work properly.
system.cpu.branchPred.BTBHitPct              0.000000                       # BTB Hit Percentage
system.cpu.branchPred.BTBHits                       0                       # Number of BTB hits
system.cpu.branchPred.BTBLookups               447490                       # Number of BTB lookups
system.cpu.branchPred.RASInCorrect                  6                       # Number of incorrect RAS predictions.
system.cpu.branchPred.condIncorrect             24247                       # Number of conditional branches incorrect
system.cpu.branchPred.condPredicted            478757                       # Number of conditional branches predicted
system.cpu.branchPred.indirectHits             245064                       # Number of indirect target hits.
system.cpu.branchPred.indirectLookups          447490                       # Number of indirect predictor lookups.
system.cpu.branchPred.indirectMisses           202426                       # Number of indirect misses.
system.cpu.branchPred.lookups                  508048                       # Number of BP lookups
system.cpu.branchPred.usedRAS                   12847                       # Number of times the RAS was used to get a target.
system.cpu.branchPredindirectMispredicted        12166                       # Number of mispredicted indirect branches.
system.cpu.cc_regfile_reads                   2478179                       # number of cc regfile reads
system.cpu.cc_regfile_writes                  1989150                       # number of cc regfile writes
system.cpu.commit.amos                              0                       # Number of atomic instructions committed
system.cpu.commit.branchMispredicts             24355                       # The number of times a branch was mispredicted
system.cpu.commit.branches                     363042                       # Number of branches committed
system.cpu.commit.bw_lim_events                631803                       # number cycles where commit BW limit reached
system.cpu.commit.commitNonSpecStalls             760                       # The number of times commit has been forced to stall to communicate backwards
system.cpu.commit.commitSquashedInsts          891457                       # The number of squashed insts skipped by commit
system.cpu.commit.committedInsts              2160148                       # Number of instructions committed
system.cpu.commit.committedOps                3793281                       # Number of ops (including micro ops) committed
system.cpu.commit.committed_per_cycle::samples      2396539                       # Number of insts commited each cycle
system.cpu.commit.committed_per_cycle::mean     1.582816                       # Number of insts commited each cycle
system.cpu.commit.committed_per_cycle::stdev     1.729589                       # Number of insts commited each cycle
system.cpu.commit.committed_per_cycle::underflows            0      0.00%      0.00% # Number of insts commited each cycle
system.cpu.commit.committed_per_cycle::0      1158405     48.34%     48.34% # Number of insts commited each cycle
system.cpu.commit.committed_per_cycle::1       186024      7.76%     56.10% # Number of insts commited each cycle
system.cpu.commit.committed_per_cycle::2       180876      7.55%     63.65% # Number of insts commited each cycle
system.cpu.commit.committed_per_cycle::3       239431      9.99%     73.64% # Number of insts commited each cycle
system.cpu.commit.committed_per_cycle::4       631803     26.36%    100.00% # Number of insts commited each cycle
system.cpu.commit.committed_per_cycle::overflows            0      0.00%    100.00% # Number of insts commited each cycle
system.cpu.commit.committed_per_cycle::min_value            0                       # Number of insts commited each cycle
system.cpu.commit.committed_per_cycle::max_value            4                       # Number of insts commited each cycle
system.cpu.commit.committed_per_cycle::total      2396539                       # Number of insts commited each cycle
system.cpu.commit.fp_insts                      87327                       # Number of committed floating point instructions.
system.cpu.commit.function_calls                11003                       # Number of function calls committed.
system.cpu.commit.int_insts                   3727513                       # Number of committed integer instructions.
system.cpu.commit.loads                        517433                       # Number of loads committed
system.cpu.commit.membars                           1                       # Number of memory barriers committed
system.cpu.commit.op_class_0::No_OpClass        21544      0.57%      0.57% # Class of committed instruction
system.cpu.commit.op_class_0::IntAlu          2971850     78.35%     78.91% # Class of committed instruction
system.cpu.commit.op_class_0::IntMult            1861      0.05%     78.96% # Class of committed instruction
system.cpu.commit.op_class_0::IntDiv            37658      0.99%     79.95% # Class of committed instruction
system.cpu.commit.op_class_0::FloatAdd           3405      0.09%     80.04% # Class of committed instruction
system.cpu.commit.op_class_0::FloatCmp              0      0.00%     80.04% # Class of committed instruction
system.cpu.commit.op_class_0::FloatCvt           1248      0.03%     80.08% # Class of committed instruction
system.cpu.commit.op_class_0::FloatMult             0      0.00%     80.08% # Class of committed instruction
system.cpu.commit.op_class_0::FloatMultAcc            0      0.00%     80.08% # Class of committed instruction
system.cpu.commit.op_class_0::FloatDiv              0      0.00%     80.08% # Class of committed instruction
system.cpu.commit.op_class_0::FloatMisc             0      0.00%     80.08% # Class of committed instruction
system.cpu.commit.op_class_0::FloatSqrt             0      0.00%     80.08% # Class of committed instruction
system.cpu.commit.op_class_0::SimdAdd            6270      0.17%     80.24% # Class of committed instruction
system.cpu.commit.op_class_0::SimdAddAcc            0      0.00%     80.24% # Class of committed instruction
system.cpu.commit.op_class_0::SimdAlu           13412      0.35%     80.60% # Class of committed instruction
system.cpu.commit.op_class_0::SimdCmp               0      0.00%     80.60% # Class of committed instruction
system.cpu.commit.op_class_0::SimdCvt           14302      0.38%     80.97% # Class of committed instruction
system.cpu.commit.op_class_0::SimdMisc          11267      0.30%     81.27% # Class of committed instruction
system.cpu.commit.op_class_0::SimdMult              0      0.00%     81.27% # Class of committed instruction
system.cpu.commit.op_class_0::SimdMultAcc            0      0.00%     81.27% # Class of committed instruction
system.cpu.commit.op_class_0::SimdShift          1316      0.03%     81.31% # Class of committed instruction
system.cpu.commit.op_class_0::SimdShiftAcc            0      0.00%     81.31% # Class of committed instruction
system.cpu.commit.op_class_0::SimdDiv               0      0.00%     81.31% # Class of committed instruction
system.cpu.commit.op_class_0::SimdSqrt              0      0.00%     81.31% # Class of committed instruction
system.cpu.commit.op_class_0::SimdFloatAdd            0      0.00%     81.31% # Class of committed instruction
system.cpu.commit.op_class_0::SimdFloatAlu            0      0.00%     81.31% # Class of committed instruction
system.cpu.commit.op_class_0::SimdFloatCmp            0      0.00%     81.31% # Class of committed instruction
system.cpu.commit.op_class_0::SimdFloatCvt            0      0.00%     81.31% # Class of committed instruction
system.cpu.commit.op_class_0::SimdFloatDiv            0      0.00%     81.31% # Class of committed instruction
system.cpu.commit.op_class_0::SimdFloatMisc            0      0.00%     81.31% # Class of committed instruction
system.cpu.commit.op_class_0::SimdFloatMult            0      0.00%     81.31% # Class of committed instruction
system.cpu.commit.op_class_0::SimdFloatMultAcc            0      0.00%     81.31% # Class of committed instruction
system.cpu.commit.op_class_0::SimdFloatSqrt            0      0.00%     81.31% # Class of committed instruction
system.cpu.commit.op_class_0::SimdReduceAdd            0      0.00%     81.31% # Class of committed instruction
system.cpu.commit.op_class_0::SimdReduceAlu            0      0.00%     81.31% # Class of committed instruction
system.cpu.commit.op_class_0::SimdReduceCmp            0      0.00%     81.31% # Class of committed instruction
system.cpu.commit.op_class_0::SimdFloatReduceAdd            0      0.00%     81.31% # Class of committed instruction
system.cpu.commit.op_class_0::SimdFloatReduceCmp            0      0.00%     81.31% # Class of committed instruction
system.cpu.commit.op_class_0::SimdAes               0      0.00%     81.31% # Class of committed instruction
system.cpu.commit.op_class_0::SimdAesMix            0      0.00%     81.31% # Class of committed instruction
system.cpu.commit.op_class_0::SimdSha1Hash            0      0.00%     81.31% # Class of committed instruction
system.cpu.commit.op_class_0::SimdSha1Hash2            0      0.00%     81.31% # Class of committed instruction
system.cpu.commit.op_class_0::SimdSha256Hash            0      0.00%     81.31% # Class of committed instruction
system.cpu.commit.op_class_0::SimdSha256Hash2            0      0.00%     81.31% # Class of committed instruction
system.cpu.commit.op_class_0::SimdShaSigma2            0      0.00%     81.31% # Class of committed instruction
system.cpu.commit.op_class_0::SimdShaSigma3            0      0.00%     81.31% # Class of committed instruction
system.cpu.commit.op_class_0::SimdPredAlu            0      0.00%     81.31% # Class of committed instruction
system.cpu.commit.op_class_0::MemRead          496515     13.09%     94.39% # Class of committed instruction
system.cpu.commit.op_class_0::MemWrite         178936      4.72%     99.11% # Class of committed instruction
system.cpu.commit.op_class_0::FloatMemRead        20918      0.55%     99.66% # Class of committed instruction
system.cpu.commit.op_class_0::FloatMemWrite        12779      0.34%    100.00% # Class of committed instruction
system.cpu.commit.op_class_0::IprAccess             0      0.00%    100.00% # Class of committed instruction
system.cpu.commit.op_class_0::InstPrefetch            0      0.00%    100.00% # Class of committed instruction
system.cpu.commit.op_class_0::total           3793281                       # Class of committed instruction
system.cpu.commit.refs                         709148                       # Number of memory references committed
system.cpu.commit.swp_count                         0                       # Number of s/w prefetches committed
system.cpu.commit.vec_insts                         0                       # Number of committed Vector instructions.
system.cpu.committedInsts                     2160148                       # Number of Instructions Simulated
system.cpu.committedOps                       3793281                       # Number of Ops (including micro ops) Simulated
system.cpu.cpi                               1.297847                       # CPI: Cycles Per Instruction
system.cpu.cpi_total                         1.297847                       # CPI: Total CPI of All Threads
system.cpu.dcache.prefetcher.num_hwpf_issued         8058                       # number of hwpf issued
system.cpu.dcache.prefetcher.pfBufferHit        33757                       # number of redundant prefetches already in prefetch queue
system.cpu.dcache.prefetcher.pfIdentified        48829                       # number of prefetch candidates identified
system.cpu.dcache.prefetcher.pfInCache              0                       # number of redundant prefetches already in cache/mshr dropped
system.cpu.dcache.prefetcher.pfRemovedFull            0                       # number of prefetches dropped due to prefetch queue size
system.cpu.dcache.prefetcher.pfSpanPage          4523                       # number of prefetches that crossed the page
system.cpu.decode.BlockedCycles               1021704                       # Number of cycles decode is blocked
system.cpu.decode.DecodedInsts                4901401                       # Number of instructions handled by decode
system.cpu.decode.IdleCycles                   308901                       # Number of cycles decode is idle
system.cpu.decode.RunCycles                   1195314                       # Number of cycles decode is running
system.cpu.decode.SquashCycles                  24423                       # Number of cycles decode is squashing
system.cpu.decode.UnblockCycles                 89261                       # Number of cycles decode is unblocking
system.cpu.dtb.rdAccesses                      600597                       # TLB accesses on read requests
system.cpu.dtb.rdMisses                          2036                       # TLB misses on read requests
system.cpu.dtb.wrAccesses                      210938                       # TLB accesses on write requests
system.cpu.dtb.wrMisses                           154                       # TLB misses on write requests
system.cpu.fetch.Branches                      508048                       # Number of branches that fetch encountered
system.cpu.fetch.CacheLines                    250614                       # Number of cache lines fetched
system.cpu.fetch.Cycles                       2272007                       # Number of cycles fetch has run and was not squashing or blocked
system.cpu.fetch.IcacheSquashes                  4671                       # Number of outstanding Icache misses that were squashed
system.cpu.fetch.Insts                        2930344                       # Number of instructions fetch has processed
system.cpu.fetch.MiscStallCycles                  134                       # Number of cycles fetch has spent waiting on interrupts, or bad addresses, or out of MSHRs
system.cpu.fetch.PendingQuiesceStallCycles            6                       # Number of stall cycles due to pending quiesce instructions
system.cpu.fetch.PendingTrapStallCycles           723                       # Number of stall cycles due to pending traps
system.cpu.fetch.SquashCycles                   48846                       # Number of cycles fetch has spent squashing
system.cpu.fetch.branchRate                  0.181217                       # Number of branch fetches per cycle
system.cpu.fetch.icacheStallCycles             342310                       # Number of cycles fetch is stalled on an Icache miss
system.cpu.fetch.predictedBranches             257911                       # Number of branches that fetch has predicted taken
system.cpu.fetch.rate                        1.045230                       # Number of inst fetches per cycle
system.cpu.fetch.rateDist::samples            2639603                       # Number of instructions fetched each cycle (Total)
system.cpu.fetch.rateDist::mean              1.962269                       # Number of instructions fetched each cycle (Total)
system.cpu.fetch.rateDist::stdev             1.930614                       # Number of instructions fetched each cycle (Total)
system.cpu.fetch.rateDist::underflows               0      0.00%      0.00% # Number of instructions fetched each cycle (Total)
system.cpu.fetch.rateDist::0                  1236306     46.84%     46.84% # Number of instructions fetched each cycle (Total)
system.cpu.fetch.rateDist::1                    76887      2.91%     49.75% # Number of instructions fetched each cycle (Total)
system.cpu.fetch.rateDist::2                    61634      2.33%     52.08% # Number of instructions fetched each cycle (Total)
system.cpu.fetch.rateDist::3                    79649      3.02%     55.10% # Number of instructions fetched each cycle (Total)
system.cpu.fetch.rateDist::4                  1185127     44.90%    100.00% # Number of instructions fetched each cycle (Total)
system.cpu.fetch.rateDist::overflows                0      0.00%    100.00% # Number of instructions fetched each cycle (Total)
system.cpu.fetch.rateDist::min_value                0                       # Number of instructions fetched each cycle (Total)
system.cpu.fetch.rateDist::max_value                4                       # Number of instructions fetched each cycle (Total)
system.cpu.fetch.rateDist::total              2639603                       # Number of instructions fetched each cycle (Total)
system.cpu.fp_regfile_reads                    145186                       # number of floating regfile reads
system.cpu.fp_regfile_writes                    79452                       # number of floating regfile writes
system.cpu.fuPool.fu_ticks_busy::IntALU(0)    226870000                       # Total ticks fu was busy
system.cpu.fuPool.fu_ticks_busy::IntALU(1)    226870000                       # Total ticks fu was busy
system.cpu.fuPool.fu_ticks_busy::IntALU(2)    226869600                       # Total ticks fu was busy
system.cpu.fuPool.fu_ticks_busy::IntALU(3)    226869600                       # Total ticks fu was busy
system.cpu.fuPool.fu_ticks_busy::IntALU(4)    226869600                       # Total ticks fu was busy
system.cpu.fuPool.fu_ticks_busy::IntALU(5)    226869600                       # Total ticks fu was busy
system.cpu.fuPool.fu_ticks_busy::IntMultDiv(0)      8676000                       # Total ticks fu was busy
system.cpu.fuPool.fu_ticks_busy::IntMultDiv(1)      8675600                       # Total ticks fu was busy
system.cpu.fuPool.fu_ticks_busy::FP_ALU(0)       638800                       # Total ticks fu was busy
system.cpu.fuPool.fu_ticks_busy::FP_ALU(1)       638800                       # Total ticks fu was busy
system.cpu.fuPool.fu_ticks_busy::FP_ALU(2)       638800                       # Total ticks fu was busy
system.cpu.fuPool.fu_ticks_busy::FP_ALU(3)       638400                       # Total ticks fu was busy
system.cpu.fuPool.fu_ticks_busy::FP_MultDiv(0)            0                       # Total ticks fu was busy
system.cpu.fuPool.fu_ticks_busy::FP_MultDiv(1)            0                       # Total ticks fu was busy
system.cpu.fuPool.fu_ticks_busy::SIMD_Unit(0)      5581200                       # Total ticks fu was busy
system.cpu.fuPool.fu_ticks_busy::SIMD_Unit(1)      5505600                       # Total ticks fu was busy
system.cpu.fuPool.fu_ticks_busy::SIMD_Unit(2)      5487200                       # Total ticks fu was busy
system.cpu.fuPool.fu_ticks_busy::SIMD_Unit(3)      5492800                       # Total ticks fu was busy
system.cpu.fuPool.fu_ticks_busy::PredALU(0)            0                       # Total ticks fu was busy
system.cpu.fuPool.fu_ticks_busy::RdWrPort(0)     82588400                       # Total ticks fu was busy
system.cpu.fuPool.fu_ticks_busy::RdWrPort(1)     82620800                       # Total ticks fu was busy
system.cpu.fuPool.fu_ticks_busy::RdWrPort(2)     82624000                       # Total ticks fu was busy
system.cpu.fuPool.fu_ticks_busy::RdWrPort(3)     82679600                       # Total ticks fu was busy
system.cpu.fuPool.fu_ticks_busy::IprPort(0)            0                       # Total ticks fu was busy
system.cpu.fuPool.fu_ticks_busy::total     1733704400                       # Total ticks fu was busy
system.cpu.icache.prefetcher.num_hwpf_issued            0                       # number of hwpf issued
system.cpu.icache.prefetcher.pfBufferHit            0                       # number of redundant prefetches already in prefetch queue
system.cpu.icache.prefetcher.pfIdentified            0                       # number of prefetch candidates identified
system.cpu.icache.prefetcher.pfInCache              0                       # number of redundant prefetches already in cache/mshr dropped
system.cpu.icache.prefetcher.pfRemovedFull            0                       # number of prefetches dropped due to prefetch queue size
system.cpu.icache.prefetcher.pfSpanPage             0                       # number of prefetches that crossed the page
system.cpu.idleCycles                          163938                       # Total number of cycles that the CPU has spent unscheduled due to idling
system.cpu.iew.branchMispredicts                28769                       # Number of branch mispredicts detected at execute
system.cpu.iew.exec_branches                   393412                       # Number of branches executed
system.cpu.iew.exec_nop                             0                       # number of nop insts executed
system.cpu.iew.exec_rate                     1.543679                       # Inst execution rate
system.cpu.iew.exec_refs                       813336                       # number of memory reference insts executed
system.cpu.iew.exec_stores                     210925                       # Number of stores executed
system.cpu.iew.exec_swp                             0                       # number of swp insts executed
system.cpu.iew.iewBlockCycles                  691722                       # Number of cycles IEW is blocking
system.cpu.iew.iewDispLoadInsts                633028                       # Number of dispatched load instructions
system.cpu.iew.iewDispNonSpecInsts                965                       # Number of dispatched non-speculative instructions
system.cpu.iew.iewDispSquashedInsts               588                       # Number of squashed instructions skipped by dispatch
system.cpu.iew.iewDispStoreInsts               221194                       # Number of dispatched store instructions
system.cpu.iew.iewDispatchedInsts             4684695                       # Number of instructions dispatched to IQ
system.cpu.iew.iewExecLoadInsts                602411                       # Number of load instructions executed
system.cpu.iew.iewExecSquashedInsts             34517                       # Number of squashed instructions skipped in execute
system.cpu.iew.iewExecutedInsts               4327766                       # Number of executed instructions
system.cpu.iew.iewIQFullEvents                   3362                       # Number of times the IQ has become full, causing a stall
system.cpu.iew.iewIdleCycles                        0                       # Number of cycles IEW is idle
system.cpu.iew.iewLSQFullEvents                  8408                       # Number of times the LSQ has become full, causing a stall
system.cpu.iew.iewSquashCycles                  24423                       # Number of cycles IEW is squashing
system.cpu.iew.iewUnblockCycles                 14747                       # Number of cycles IEW is unblocking
system.cpu.iew.lsq.thread0.blockedLoads             0                       # Number of blocked loads due to partial load-store forwarding
system.cpu.iew.lsq.thread0.cacheBlocked           621                       # Number of times an access to memory failed due to the cache being blocked
system.cpu.iew.lsq.thread0.forwLoads            42959                       # Number of loads that had data forwarded from stores
system.cpu.iew.lsq.thread0.ignoredResponses          229                       # Number of memory responses ignored because the instruction is squashed
system.cpu.iew.lsq.thread0.invAddrLoads             0                       # Number of loads ignored due to an invalid address
system.cpu.iew.lsq.thread0.invAddrSwpfs             0                       # Number of software prefetches ignored due to an invalid address
system.cpu.iew.lsq.thread0.memOrderViolation           83                       # Number of memory ordering violations
system.cpu.iew.lsq.thread0.rescheduledLoads            3                       # Number of loads that were rescheduled
system.cpu.iew.lsq.thread0.squashedLoads       115593                       # Number of loads squashed
system.cpu.iew.lsq.thread0.squashedStores        29478                       # Number of stores squashed
system.cpu.iew.memOrderViolationEvents             83                       # Number of memory order violations
system.cpu.iew.predictedNotTakenIncorrect        20718                       # Number of branches that were predicted not taken incorrectly
system.cpu.iew.predictedTakenIncorrect           8051                       # Number of branches that were predicted taken incorrectly
system.cpu.iew.wb_consumers                   6023848                       # num instructions consuming a value
system.cpu.iew.wb_count                       4305805                       # cumulative count of insts written-back
system.cpu.iew.wb_fanout                     0.568263                       # average fanout of values written-back
system.cpu.iew.wb_producers                   3423132                       # num instructions producing a value
system.cpu.iew.wb_rate                       1.535845                       # insts written-back per cycle
system.cpu.iew.wb_sent                        4312701                       # cumulative count of insts sent to commit
system.cpu.int_regfile_reads                  6689477                       # number of integer regfile reads
system.cpu.int_regfile_writes                 3697685                       # number of integer regfile writes
system.cpu.ipc                               0.770507                       # IPC: Instructions Per Cycle
system.cpu.ipc_total                         0.770507                       # IPC: Total IPC of All Threads
system.cpu.iq.FU_type_0::No_OpClass             28022      0.64%      0.64% # Type of FU issued
system.cpu.iq.FU_type_0::IntAlu               3403048     78.01%     78.65% # Type of FU issued
system.cpu.iq.FU_type_0::IntMult                 1900      0.04%     78.70% # Type of FU issued
system.cpu.iq.FU_type_0::IntDiv                 41479      0.95%     79.65% # Type of FU issued
system.cpu.iq.FU_type_0::FloatAdd                5091      0.12%     79.76% # Type of FU issued
system.cpu.iq.FU_type_0::FloatCmp                   0      0.00%     79.76% # Type of FU issued
system.cpu.iq.FU_type_0::FloatCvt                1296      0.03%     79.79% # Type of FU issued
system.cpu.iq.FU_type_0::FloatMult                  0      0.00%     79.79% # Type of FU issued
system.cpu.iq.FU_type_0::FloatMultAcc               0      0.00%     79.79% # Type of FU issued
system.cpu.iq.FU_type_0::FloatDiv                   0      0.00%     79.79% # Type of FU issued
system.cpu.iq.FU_type_0::FloatMisc                  0      0.00%     79.79% # Type of FU issued
system.cpu.iq.FU_type_0::FloatSqrt                  0      0.00%     79.79% # Type of FU issued
system.cpu.iq.FU_type_0::SimdAdd                 7018      0.16%     79.95% # Type of FU issued
system.cpu.iq.FU_type_0::SimdAddAcc                 0      0.00%     79.95% # Type of FU issued
system.cpu.iq.FU_type_0::SimdAlu                17417      0.40%     80.35% # Type of FU issued
system.cpu.iq.FU_type_0::SimdCmp                    0      0.00%     80.35% # Type of FU issued
system.cpu.iq.FU_type_0::SimdCvt                16284      0.37%     80.73% # Type of FU issued
system.cpu.iq.FU_type_0::SimdMisc               11956      0.27%     81.00% # Type of FU issued
system.cpu.iq.FU_type_0::SimdMult                   0      0.00%     81.00% # Type of FU issued
system.cpu.iq.FU_type_0::SimdMultAcc                0      0.00%     81.00% # Type of FU issued
system.cpu.iq.FU_type_0::SimdShift               2492      0.06%     81.06% # Type of FU issued
system.cpu.iq.FU_type_0::SimdShiftAcc               0      0.00%     81.06% # Type of FU issued
system.cpu.iq.FU_type_0::SimdDiv                    0      0.00%     81.06% # Type of FU issued
system.cpu.iq.FU_type_0::SimdSqrt                   0      0.00%     81.06% # Type of FU issued
system.cpu.iq.FU_type_0::SimdFloatAdd               0      0.00%     81.06% # Type of FU issued
system.cpu.iq.FU_type_0::SimdFloatAlu               0      0.00%     81.06% # Type of FU issued
system.cpu.iq.FU_type_0::SimdFloatCmp               0      0.00%     81.06% # Type of FU issued
system.cpu.iq.FU_type_0::SimdFloatCvt               0      0.00%     81.06% # Type of FU issued
system.cpu.iq.FU_type_0::SimdFloatDiv               0      0.00%     81.06% # Type of FU issued
system.cpu.iq.FU_type_0::SimdFloatMisc              0      0.00%     81.06% # Type of FU issued
system.cpu.iq.FU_type_0::SimdFloatMult              0      0.00%     81.06% # Type of FU issued
system.cpu.iq.FU_type_0::SimdFloatMultAcc            0      0.00%     81.06% # Type of FU issued
system.cpu.iq.FU_type_0::SimdFloatSqrt              0      0.00%     81.06% # Type of FU issued
system.cpu.iq.FU_type_0::SimdReduceAdd              0      0.00%     81.06% # Type of FU issued
system.cpu.iq.FU_type_0::SimdReduceAlu              0      0.00%     81.06% # Type of FU issued
system.cpu.iq.FU_type_0::SimdReduceCmp              0      0.00%     81.06% # Type of FU issued
system.cpu.iq.FU_type_0::SimdFloatReduceAdd            0      0.00%     81.06% # Type of FU issued
system.cpu.iq.FU_type_0::SimdFloatReduceCmp            0      0.00%     81.06% # Type of FU issued
system.cpu.iq.FU_type_0::SimdAes                    0      0.00%     81.06% # Type of FU issued
system.cpu.iq.FU_type_0::SimdAesMix                 0      0.00%     81.06% # Type of FU issued
system.cpu.iq.FU_type_0::SimdSha1Hash               0      0.00%     81.06% # Type of FU issued
system.cpu.iq.FU_type_0::SimdSha1Hash2              0      0.00%     81.06% # Type of FU issued
system.cpu.iq.FU_type_0::SimdSha256Hash             0      0.00%     81.06% # Type of FU issued
system.cpu.iq.FU_type_0::SimdSha256Hash2            0      0.00%     81.06% # Type of FU issued
system.cpu.iq.FU_type_0::SimdShaSigma2              0      0.00%     81.06% # Type of FU issued
system.cpu.iq.FU_type_0::SimdShaSigma3              0      0.00%     81.06% # Type of FU issued
system.cpu.iq.FU_type_0::SimdPredAlu                0      0.00%     81.06% # Type of FU issued
system.cpu.iq.FU_type_0::MemRead               585374     13.42%     94.48% # Type of FU issued
system.cpu.iq.FU_type_0::MemWrite              199339      4.57%     99.05% # Type of FU issued
system.cpu.iq.FU_type_0::FloatMemRead           27428      0.63%     99.68% # Type of FU issued
system.cpu.iq.FU_type_0::FloatMemWrite          14143      0.32%    100.00% # Type of FU issued
system.cpu.iq.FU_type_0::IprAccess                  0      0.00%    100.00% # Type of FU issued
system.cpu.iq.FU_type_0::InstPrefetch               0      0.00%    100.00% # Type of FU issued
system.cpu.iq.FU_type_0::total                4362287                       # Type of FU issued
system.cpu.iq.fp_alu_accesses                  105738                       # Number of floating point alu accesses
system.cpu.iq.fp_inst_queue_reads              212945                       # Number of floating instruction queue reads
system.cpu.iq.fp_inst_queue_wakeup_accesses       102076                       # Number of floating instruction queue wakeup accesses
system.cpu.iq.fp_inst_queue_writes             151333                       # Number of floating instruction queue writes
system.cpu.iq.fu_busy_cnt                           0                       # FU busy when requested
system.cpu.iq.fu_busy_rate                          0                       # FU busy rate (busy events/executed inst)
system.cpu.iq.fu_full::No_OpClass                   0                       # attempts to use FU when none available
system.cpu.iq.fu_full::IntAlu                       0                       # attempts to use FU when none available
system.cpu.iq.fu_full::IntMult                      0                       # attempts to use FU when none available
system.cpu.iq.fu_full::IntDiv                       0                       # attempts to use FU when none available
system.cpu.iq.fu_full::FloatAdd                     0                       # attempts to use FU when none available
system.cpu.iq.fu_full::FloatCmp                     0                       # attempts to use FU when none available
system.cpu.iq.fu_full::FloatCvt                     0                       # attempts to use FU when none available
system.cpu.iq.fu_full::FloatMult                    0                       # attempts to use FU when none available
system.cpu.iq.fu_full::FloatMultAcc                 0                       # attempts to use FU when none available
system.cpu.iq.fu_full::FloatDiv                     0                       # attempts to use FU when none available
system.cpu.iq.fu_full::FloatMisc                    0                       # attempts to use FU when none available
system.cpu.iq.fu_full::FloatSqrt                    0                       # attempts to use FU when none available
system.cpu.iq.fu_full::SimdAdd                      0                       # attempts to use FU when none available
system.cpu.iq.fu_full::SimdAddAcc                   0                       # attempts to use FU when none available
system.cpu.iq.fu_full::SimdAlu                      0                       # attempts to use FU when none available
system.cpu.iq.fu_full::SimdCmp                      0                       # attempts to use FU when none available
system.cpu.iq.fu_full::SimdCvt                      0                       # attempts to use FU when none available
system.cpu.iq.fu_full::SimdMisc                     0                       # attempts to use FU when none available
system.cpu.iq.fu_full::SimdMult                     0                       # attempts to use FU when none available
system.cpu.iq.fu_full::SimdMultAcc                  0                       # attempts to use FU when none available
system.cpu.iq.fu_full::SimdShift                    0                       # attempts to use FU when none available
system.cpu.iq.fu_full::SimdShiftAcc                 0                       # attempts to use FU when none available
system.cpu.iq.fu_full::SimdDiv                      0                       # attempts to use FU when none available
system.cpu.iq.fu_full::SimdSqrt                     0                       # attempts to use FU when none available
system.cpu.iq.fu_full::SimdFloatAdd                 0                       # attempts to use FU when none available
system.cpu.iq.fu_full::SimdFloatAlu                 0                       # attempts to use FU when none available
system.cpu.iq.fu_full::SimdFloatCmp                 0                       # attempts to use FU when none available
system.cpu.iq.fu_full::SimdFloatCvt                 0                       # attempts to use FU when none available
system.cpu.iq.fu_full::SimdFloatDiv                 0                       # attempts to use FU when none available
system.cpu.iq.fu_full::SimdFloatMisc                0                       # attempts to use FU when none available
system.cpu.iq.fu_full::SimdFloatMult                0                       # attempts to use FU when none available
system.cpu.iq.fu_full::SimdFloatMultAcc             0                       # attempts to use FU when none available
system.cpu.iq.fu_full::SimdFloatSqrt                0                       # attempts to use FU when none available
system.cpu.iq.fu_full::SimdReduceAdd                0                       # attempts to use FU when none available
system.cpu.iq.fu_full::SimdReduceAlu                0                       # attempts to use FU when none available
system.cpu.iq.fu_full::SimdReduceCmp                0                       # attempts to use FU when none available
system.cpu.iq.fu_full::SimdFloatReduceAdd            0                       # attempts to use FU when none available
system.cpu.iq.fu_full::SimdFloatReduceCmp            0                       # attempts to use FU when none available
system.cpu.iq.fu_full::SimdAes                      0                       # attempts to use FU when none available
system.cpu.iq.fu_full::SimdAesMix                   0                       # attempts to use FU when none available
system.cpu.iq.fu_full::SimdSha1Hash                 0                       # attempts to use FU when none available
system.cpu.iq.fu_full::SimdSha1Hash2                0                       # attempts to use FU when none available
system.cpu.iq.fu_full::SimdSha256Hash               0                       # attempts to use FU when none available
system.cpu.iq.fu_full::SimdSha256Hash2              0                       # attempts to use FU when none available
system.cpu.iq.fu_full::SimdShaSigma2                0                       # attempts to use FU when none available
system.cpu.iq.fu_full::SimdShaSigma3                0                       # attempts to use FU when none available
system.cpu.iq.fu_full::SimdPredAlu                  0                       # attempts to use FU when none available
system.cpu.iq.fu_full::MemRead                      0                       # attempts to use FU when none available
system.cpu.iq.fu_full::MemWrite                     0                       # attempts to use FU when none available
system.cpu.iq.fu_full::FloatMemRead                 0                       # attempts to use FU when none available
system.cpu.iq.fu_full::FloatMemWrite                0                       # attempts to use FU when none available
system.cpu.iq.fu_full::IprAccess                    0                       # attempts to use FU when none available
system.cpu.iq.fu_full::InstPrefetch                 0                       # attempts to use FU when none available
system.cpu.iq.int_alu_accesses                4228527                       # Number of integer alu accesses
system.cpu.iq.int_inst_queue_reads           11169771                       # Number of integer instruction queue reads
system.cpu.iq.int_inst_queue_wakeup_accesses      4203729                       # Number of integer instruction queue wakeup accesses
system.cpu.iq.int_inst_queue_writes           5424847                       # Number of integer instruction queue writes
system.cpu.iq.iqInstsAdded                    4683533                       # Number of instructions added to the IQ (excludes non-spec)
system.cpu.iq.iqInstsIssued                   4362287                       # Number of instructions issued
system.cpu.iq.iqNonSpecInstsAdded                1162                       # Number of non-speculative instructions added to the IQ
system.cpu.iq.iqSquashedInstsExamined          891403                       # Number of squashed instructions iterated over during squash; mainly for profiling
system.cpu.iq.iqSquashedInstsIssued             18543                       # Number of squashed instructions issued
system.cpu.iq.iqSquashedNonSpecRemoved            402                       # Number of squashed non-spec instructions that were removed
system.cpu.iq.iqSquashedOperandsExamined      1330168                       # Number of squashed operands that are examined and possibly removed from graph
system.cpu.iq.issued_per_cycle::samples       2639603                       # Number of insts issued each cycle
system.cpu.iq.issued_per_cycle::mean         1.652630                       # Number of insts issued each cycle
system.cpu.iq.issued_per_cycle::stdev        1.671758                       # Number of insts issued each cycle
system.cpu.iq.issued_per_cycle::underflows            0      0.00%      0.00% # Number of insts issued each cycle
system.cpu.iq.issued_per_cycle::0             1168463     44.27%     44.27% # Number of insts issued each cycle
system.cpu.iq.issued_per_cycle::1              179225      6.79%     51.06% # Number of insts issued each cycle
system.cpu.iq.issued_per_cycle::2              314332     11.91%     62.96% # Number of insts issued each cycle
system.cpu.iq.issued_per_cycle::3              355934     13.48%     76.45% # Number of insts issued each cycle
system.cpu.iq.issued_per_cycle::4              621649     23.55%    100.00% # Number of insts issued each cycle
system.cpu.iq.issued_per_cycle::overflows            0      0.00%    100.00% # Number of insts issued each cycle
system.cpu.iq.issued_per_cycle::min_value            0                       # Number of insts issued each cycle
system.cpu.iq.issued_per_cycle::max_value            4                       # Number of insts issued each cycle
system.cpu.iq.issued_per_cycle::total         2639603                       # Number of insts issued each cycle
system.cpu.iq.rate                           1.555992                       # Inst issue rate
system.cpu.iq.vec_alu_accesses                      0                       # Number of vector alu accesses
system.cpu.iq.vec_inst_queue_reads                  0                       # Number of vector instruction queue reads
system.cpu.iq.vec_inst_queue_wakeup_accesses            0                       # Number of vector instruction queue wakeup accesses
system.cpu.iq.vec_inst_queue_writes                 0                       # Number of vector instruction queue writes
system.cpu.itb.rdAccesses                           0                       # TLB accesses on read requests
system.cpu.itb.rdMisses                             0                       # TLB misses on read requests
system.cpu.itb.wrAccesses                      250741                       # TLB accesses on write requests
system.cpu.itb.wrMisses                           377                       # TLB misses on write requests
system.cpu.memDep0.conflictingLoads             12137                       # Number of conflicting loads.
system.cpu.memDep0.conflictingStores             5135                       # Number of conflicting stores.
system.cpu.memDep0.insertedLoads               633028                       # Number of loads inserted to the mem dependence unit.
system.cpu.memDep0.insertedStores              221194                       # Number of stores inserted to the mem dependence unit.
system.cpu.misc_regfile_reads                 1636978                       # number of misc regfile reads
system.cpu.misc_regfile_writes                    702                       # number of misc regfile writes
system.cpu.numCycles                          2803541                       # number of cpu cycles simulated
system.cpu.numWorkItemsCompleted                    0                       # number of work items this cpu completed
system.cpu.numWorkItemsStarted                      0                       # number of work items this cpu started
system.cpu.process.numSyscalls                     57                       # Number of system calls
system.cpu.rename.BlockCycles                  835850                       # Number of cycles rename is blocking
system.cpu.rename.CommittedMaps               5138587                       # Number of HB maps that are committed
system.cpu.rename.FullRegisterEvents              168                       # Number of times there has been no free registers
system.cpu.rename.IQFullEvents                  47472                       # Number of times rename has blocked due to IQ full
system.cpu.rename.IdleCycles                   359444                       # Number of cycles rename is idle
system.cpu.rename.LQFullEvents                  16850                       # Number of times rename has blocked due to LQ full
system.cpu.rename.ROBFullEvents                  4185                       # Number of times rename has blocked due to ROB full
system.cpu.rename.RenameLookups              12596049                       # Number of register rename lookups that rename has made
system.cpu.rename.RenamedInsts                4826499                       # Number of instructions processed by rename
system.cpu.rename.RenamedOperands             6541035                       # Number of destination operands rename has renamed
system.cpu.rename.RunCycles                   1225594                       # Number of cycles rename is running
system.cpu.rename.SQFullEvents                  72448                       # Number of times rename has blocked due to SQ full
system.cpu.rename.SquashCycles                  24423                       # Number of cycles rename is squashing
system.cpu.rename.UnblockCycles                174173                       # Number of cycles rename is unblocking
system.cpu.rename.UndoneMaps                  1402422                       # Number of HB maps that are undone due to squashing
system.cpu.rename.fp_rename_lookups            183837                       # Number of floating rename lookups
system.cpu.rename.int_rename_lookups          7638424                       # Number of integer rename lookups
system.cpu.rename.serializeStallCycles          20119                       # count of cycles rename stalled for serializing inst
system.cpu.rename.serializingInsts                899                       # count of serializing insts renamed
system.cpu.rename.skidInsts                    208595                       # count of insts added to the skid buffer
system.cpu.rename.tempSerializingInsts            954                       # count of temporary serializing insts renamed
system.cpu.rob.rob_reads                      6449474                       # The number of ROB reads
system.cpu.rob.rob_writes                     9613435                       # The number of ROB writes
system.cpu.timesIdled                            1642                       # Number of times that the entire CPU went into an idle state and unscheduled itself
system.l2bus.snoop_filter.hit_multi_requests           12                       # Number of requests hitting in the snoop filter with multiple (>1) holders of the requested data.
system.l2bus.snoop_filter.hit_multi_snoops            1                       # Number of snoops hitting in the snoop filter with multiple (>1) holders of the requested data.
system.l2bus.snoop_filter.hit_single_requests        18528                       # Number of requests hitting in the snoop filter with a single holder of the requested data.
system.l2bus.snoop_filter.hit_single_snoops          438                       # Number of snoops hitting in the snoop filter with a single holder of the requested data.
system.l2bus.snoop_filter.tot_requests          38336                       # Total number of requests made to the snoop filter.
system.l2bus.snoop_filter.tot_snoops              439                       # Total number of snoops made to the snoop filter.
system.l2cache.prefetcher.num_hwpf_issued          709                       # number of hwpf issued
system.l2cache.prefetcher.pfBufferHit               0                       # number of redundant prefetches already in prefetch queue
system.l2cache.prefetcher.pfIdentified            709                       # number of prefetch candidates identified
system.l2cache.prefetcher.pfInCache                 0                       # number of redundant prefetches already in cache/mshr dropped
system.l2cache.prefetcher.pfRemovedFull             0                       # number of prefetches dropped due to prefetch queue size
system.l2cache.prefetcher.pfSpanPage              131                       # number of prefetches that crossed the page
system.membus.snoop_filter.hit_multi_requests            0                       # Number of requests hitting in the snoop filter with multiple (>1) holders of the requested data.
system.membus.snoop_filter.hit_multi_snoops            0                       # Number of snoops hitting in the snoop filter with multiple (>1) holders of the requested data.
system.membus.snoop_filter.hit_single_requests         9449                       # Number of requests hitting in the snoop filter with a single holder of the requested data.
system.membus.snoop_filter.hit_single_snoops            0                       # Number of snoops hitting in the snoop filter with a single holder of the requested data.
system.membus.snoop_filter.tot_requests         23019                       # Total number of requests made to the snoop filter.
system.membus.snoop_filter.tot_snoops               0                       # Total number of snoops made to the snoop filter.
system.membus.pwrStateResidencyTicks::UNDEFINED   1121416000                       # Cumulative time (in ticks) in various power states
system.membus.trans_dist::ReadResp              12219                       # Transaction distribution
system.membus.trans_dist::WritebackDirty         1348                       # Transaction distribution
system.membus.trans_dist::CleanEvict             8101                       # Transaction distribution
system.membus.trans_dist::ReadExReq              1351                       # Transaction distribution
system.membus.trans_dist::ReadExResp             1351                       # Transaction distribution
system.membus.trans_dist::ReadSharedReq         12219                       # Transaction distribution
system.membus.pkt_count_system.l2cache.mem_side::system.mem_ctrl.port        36589                       # Packet count per connected master and slave (bytes)
system.membus.pkt_count_system.l2cache.mem_side::total        36589                       # Packet count per connected master and slave (bytes)
system.membus.pkt_count::total                  36589                       # Packet count per connected master and slave (bytes)
system.membus.pkt_size_system.l2cache.mem_side::system.mem_ctrl.port       954752                       # Cumulative packet size per connected master and slave (bytes)
system.membus.pkt_size_system.l2cache.mem_side::total       954752                       # Cumulative packet size per connected master and slave (bytes)
system.membus.pkt_size::total                  954752                       # Cumulative packet size per connected master and slave (bytes)
system.membus.snoops                                0                       # Total snoops (count)
system.membus.snoopTraffic                          0                       # Total snoop traffic (bytes)
system.membus.snoop_fanout::samples             13570                       # Request fanout histogram
system.membus.snoop_fanout::mean                    0                       # Request fanout histogram
system.membus.snoop_fanout::stdev                   0                       # Request fanout histogram
system.membus.snoop_fanout::underflows              0      0.00%      0.00% # Request fanout histogram
system.membus.snoop_fanout::0                   13570    100.00%    100.00% # Request fanout histogram
system.membus.snoop_fanout::1                       0      0.00%    100.00% # Request fanout histogram
system.membus.snoop_fanout::overflows               0      0.00%    100.00% # Request fanout histogram
system.membus.snoop_fanout::min_value               0                       # Request fanout histogram
system.membus.snoop_fanout::max_value               0                       # Request fanout histogram
system.membus.snoop_fanout::total               13570                       # Request fanout histogram
system.membus.reqLayer2.occupancy            11392573                       # Layer occupancy (ticks)
system.membus.reqLayer2.utilization               1.0                       # Layer utilization (%)
system.membus.respLayer0.occupancy           29453627                       # Layer occupancy (ticks)
system.membus.respLayer0.utilization              2.6                       # Layer utilization (%)
system.l2bus.pwrStateResidencyTicks::UNDEFINED   1121416000                       # Cumulative time (in ticks) in various power states
system.l2bus.trans_dist::ReadResp               17699                       # Transaction distribution
system.l2bus.trans_dist::WritebackDirty          4134                       # Transaction distribution
system.l2bus.trans_dist::CleanEvict             23932                       # Transaction distribution
system.l2bus.trans_dist::HardPFReq                991                       # Transaction distribution
system.l2bus.trans_dist::ReadExReq               2109                       # Transaction distribution
system.l2bus.trans_dist::ReadExResp              2109                       # Transaction distribution
system.l2bus.trans_dist::ReadSharedReq          17699                       # Transaction distribution
system.l2bus.pkt_count_system.cpu.icache.mem_side::system.l2cache.cpu_side         8487                       # Packet count per connected master and slave (bytes)
system.l2bus.pkt_count_system.cpu.dcache.mem_side::system.l2cache.cpu_side        49655                       # Packet count per connected master and slave (bytes)
system.l2bus.pkt_count::total                   58142                       # Packet count per connected master and slave (bytes)
system.l2bus.pkt_size_system.cpu.icache.mem_side::system.l2cache.cpu_side       186432                       # Cumulative packet size per connected master and slave (bytes)
system.l2bus.pkt_size_system.cpu.dcache.mem_side::system.l2cache.cpu_side      1259456                       # Cumulative packet size per connected master and slave (bytes)
system.l2bus.pkt_size::total                  1445888                       # Cumulative packet size per connected master and slave (bytes)
system.l2bus.snoops                             10531                       # Total snoops (count)
system.l2bus.snoopTraffic                       86400                       # Total snoop traffic (bytes)
system.l2bus.snoop_fanout::samples              30337                       # Request fanout histogram
system.l2bus.snoop_fanout::mean              0.014899                       # Request fanout histogram
system.l2bus.snoop_fanout::stdev             0.121424                       # Request fanout histogram
system.l2bus.snoop_fanout::underflows               0      0.00%      0.00% # Request fanout histogram
system.l2bus.snoop_fanout::0                    29886     98.51%     98.51% # Request fanout histogram
system.l2bus.snoop_fanout::1                      450      1.48%    100.00% # Request fanout histogram
system.l2bus.snoop_fanout::2                        1      0.00%    100.00% # Request fanout histogram
system.l2bus.snoop_fanout::overflows                0      0.00%    100.00% # Request fanout histogram
system.l2bus.snoop_fanout::min_value                0                       # Request fanout histogram
system.l2bus.snoop_fanout::max_value                2                       # Request fanout histogram
system.l2bus.snoop_fanout::total                30337                       # Request fanout histogram
system.l2bus.respLayer1.occupancy            20272797                       # Layer occupancy (ticks)
system.l2bus.respLayer1.utilization               1.8                       # Layer utilization (%)
system.l2bus.reqLayer0.occupancy             18963542                       # Layer occupancy (ticks)
system.l2bus.reqLayer0.utilization                1.7                       # Layer utilization (%)
system.l2bus.respLayer0.occupancy             3499197                       # Layer occupancy (ticks)
system.l2bus.respLayer0.utilization               0.3                       # Layer utilization (%)
system.clk_domain.clock                           400                       # Clock period in ticks
system.clk_domain.voltage_domain.voltage            1                       # Voltage in Volts
system.cpu.pwrStateResidencyTicks::ON      1121416000                       # Cumulative time (in ticks) in various power states
system.cpu.icache.pwrStateResidencyTicks::UNDEFINED   1121416000                       # Cumulative time (in ticks) in various power states
system.cpu.icache.demand_hits::.cpu.inst       246976                       # number of demand (read+write) hits
system.cpu.icache.demand_hits::total           246976                       # number of demand (read+write) hits
system.cpu.icache.overall_hits::.cpu.inst       246976                       # number of overall hits
system.cpu.icache.overall_hits::total          246976                       # number of overall hits
system.cpu.icache.demand_misses::.cpu.inst         3637                       # number of demand (read+write) misses
system.cpu.icache.demand_misses::total           3637                       # number of demand (read+write) misses
system.cpu.icache.overall_misses::.cpu.inst         3637                       # number of overall misses
system.cpu.icache.overall_misses::total          3637                       # number of overall misses
system.cpu.icache.demand_miss_latency::.cpu.inst    179339600                       # number of demand (read+write) miss cycles
system.cpu.icache.demand_miss_latency::total    179339600                       # number of demand (read+write) miss cycles
system.cpu.icache.overall_miss_latency::.cpu.inst    179339600                       # number of overall miss cycles
system.cpu.icache.overall_miss_latency::total    179339600                       # number of overall miss cycles
system.cpu.icache.demand_accesses::.cpu.inst       250613                       # number of demand (read+write) accesses
system.cpu.icache.demand_accesses::total       250613                       # number of demand (read+write) accesses
system.cpu.icache.overall_accesses::.cpu.inst       250613                       # number of overall (read+write) accesses
system.cpu.icache.overall_accesses::total       250613                       # number of overall (read+write) accesses
system.cpu.icache.demand_miss_rate::.cpu.inst     0.014512                       # miss rate for demand accesses
system.cpu.icache.demand_miss_rate::total     0.014512                       # miss rate for demand accesses
system.cpu.icache.overall_miss_rate::.cpu.inst     0.014512                       # miss rate for overall accesses
system.cpu.icache.overall_miss_rate::total     0.014512                       # miss rate for overall accesses
system.cpu.icache.demand_avg_miss_latency::.cpu.inst 49309.760792                       # average overall miss latency
system.cpu.icache.demand_avg_miss_latency::total 49309.760792                       # average overall miss latency
system.cpu.icache.overall_avg_miss_latency::.cpu.inst 49309.760792                       # average overall miss latency
system.cpu.icache.overall_avg_miss_latency::total 49309.760792                       # average overall miss latency
system.cpu.icache.blocked_cycles::no_mshrs           39                       # number of cycles access was blocked
system.cpu.icache.blocked_cycles::no_targets            0                       # number of cycles access was blocked
system.cpu.icache.blocked::no_mshrs                 2                       # number of cycles access was blocked
system.cpu.icache.blocked::no_targets               0                       # number of cycles access was blocked
system.cpu.icache.avg_blocked_cycles::no_mshrs    19.500000                       # average number of cycles each access was blocked
system.cpu.icache.avg_blocked_cycles::no_targets          nan                       # average number of cycles each access was blocked
system.cpu.icache.demand_mshr_hits::.cpu.inst          722                       # number of demand (read+write) MSHR hits
system.cpu.icache.demand_mshr_hits::total          722                       # number of demand (read+write) MSHR hits
system.cpu.icache.overall_mshr_hits::.cpu.inst          722                       # number of overall MSHR hits
system.cpu.icache.overall_mshr_hits::total          722                       # number of overall MSHR hits
system.cpu.icache.demand_mshr_misses::.cpu.inst         2915                       # number of demand (read+write) MSHR misses
system.cpu.icache.demand_mshr_misses::total         2915                       # number of demand (read+write) MSHR misses
system.cpu.icache.overall_mshr_misses::.cpu.inst         2915                       # number of overall MSHR misses
system.cpu.icache.overall_mshr_misses::total         2915                       # number of overall MSHR misses
system.cpu.icache.demand_mshr_miss_latency::.cpu.inst    144830000                       # number of demand (read+write) MSHR miss cycles
system.cpu.icache.demand_mshr_miss_latency::total    144830000                       # number of demand (read+write) MSHR miss cycles
system.cpu.icache.overall_mshr_miss_latency::.cpu.inst    144830000                       # number of overall MSHR miss cycles
system.cpu.icache.overall_mshr_miss_latency::total    144830000                       # number of overall MSHR miss cycles
system.cpu.icache.demand_mshr_miss_rate::.cpu.inst     0.011631                       # mshr miss rate for demand accesses
system.cpu.icache.demand_mshr_miss_rate::total     0.011631                       # mshr miss rate for demand accesses
system.cpu.icache.overall_mshr_miss_rate::.cpu.inst     0.011631                       # mshr miss rate for overall accesses
system.cpu.icache.overall_mshr_miss_rate::total     0.011631                       # mshr miss rate for overall accesses
system.cpu.icache.demand_avg_mshr_miss_latency::.cpu.inst 49684.391081                       # average overall mshr miss latency
system.cpu.icache.demand_avg_mshr_miss_latency::total 49684.391081                       # average overall mshr miss latency
system.cpu.icache.overall_avg_mshr_miss_latency::.cpu.inst 49684.391081                       # average overall mshr miss latency
system.cpu.icache.overall_avg_mshr_miss_latency::total 49684.391081                       # average overall mshr miss latency
system.cpu.icache.replacements                   2659                       # number of replacements
system.cpu.icache.ReadReq_hits::.cpu.inst       246976                       # number of ReadReq hits
system.cpu.icache.ReadReq_hits::total          246976                       # number of ReadReq hits
system.cpu.icache.ReadReq_misses::.cpu.inst         3637                       # number of ReadReq misses
system.cpu.icache.ReadReq_misses::total          3637                       # number of ReadReq misses
system.cpu.icache.ReadReq_miss_latency::.cpu.inst    179339600                       # number of ReadReq miss cycles
system.cpu.icache.ReadReq_miss_latency::total    179339600                       # number of ReadReq miss cycles
system.cpu.icache.ReadReq_accesses::.cpu.inst       250613                       # number of ReadReq accesses(hits+misses)
system.cpu.icache.ReadReq_accesses::total       250613                       # number of ReadReq accesses(hits+misses)
system.cpu.icache.ReadReq_miss_rate::.cpu.inst     0.014512                       # miss rate for ReadReq accesses
system.cpu.icache.ReadReq_miss_rate::total     0.014512                       # miss rate for ReadReq accesses
system.cpu.icache.ReadReq_avg_miss_latency::.cpu.inst 49309.760792                       # average ReadReq miss latency
system.cpu.icache.ReadReq_avg_miss_latency::total 49309.760792                       # average ReadReq miss latency
system.cpu.icache.ReadReq_mshr_hits::.cpu.inst          722                       # number of ReadReq MSHR hits
system.cpu.icache.ReadReq_mshr_hits::total          722                       # number of ReadReq MSHR hits
system.cpu.icache.ReadReq_mshr_misses::.cpu.inst         2915                       # number of ReadReq MSHR misses
system.cpu.icache.ReadReq_mshr_misses::total         2915                       # number of ReadReq MSHR misses
system.cpu.icache.ReadReq_mshr_miss_latency::.cpu.inst    144830000                       # number of ReadReq MSHR miss cycles
system.cpu.icache.ReadReq_mshr_miss_latency::total    144830000                       # number of ReadReq MSHR miss cycles
system.cpu.icache.ReadReq_mshr_miss_rate::.cpu.inst     0.011631                       # mshr miss rate for ReadReq accesses
system.cpu.icache.ReadReq_mshr_miss_rate::total     0.011631                       # mshr miss rate for ReadReq accesses
system.cpu.icache.ReadReq_avg_mshr_miss_latency::.cpu.inst 49684.391081                       # average ReadReq mshr miss latency
system.cpu.icache.ReadReq_avg_mshr_miss_latency::total 49684.391081                       # average ReadReq mshr miss latency
system.cpu.icache.prefetcher.pwrStateResidencyTicks::UNDEFINED   1121416000                       # Cumulative time (in ticks) in various power states
system.cpu.icache.tags.pwrStateResidencyTicks::UNDEFINED   1121416000                       # Cumulative time (in ticks) in various power states
system.cpu.icache.tags.tagsinuse           253.533273                       # Cycle average of tags in use
system.cpu.icache.tags.total_refs              239182                       # Total number of references to valid blocks.
system.cpu.icache.tags.sampled_refs              2659                       # Sample count of references to valid blocks.
system.cpu.icache.tags.avg_refs             89.951862                       # Average number of references to valid blocks.
system.cpu.icache.tags.warmup_cycle             66400                       # Cycle when the warmup percentage was hit.
system.cpu.icache.tags.occ_blocks::.cpu.inst   253.533273                       # Average occupied blocks per requestor
system.cpu.icache.tags.occ_percent::.cpu.inst     0.990364                       # Average percentage of cache occupancy
system.cpu.icache.tags.occ_percent::total     0.990364                       # Average percentage of cache occupancy
system.cpu.icache.tags.occ_task_id_blocks::1024          256                       # Occupied blocks per task id
system.cpu.icache.tags.age_task_id_blocks_1024::0          107                       # Occupied blocks per task id
system.cpu.icache.tags.age_task_id_blocks_1024::1          123                       # Occupied blocks per task id
system.cpu.icache.tags.age_task_id_blocks_1024::2           25                       # Occupied blocks per task id
system.cpu.icache.tags.age_task_id_blocks_1024::3            1                       # Occupied blocks per task id
system.cpu.icache.tags.occ_task_id_percent::1024            1                       # Percentage of cache occupancy per task id
system.cpu.icache.tags.tag_accesses            504141                       # Number of tag accesses
system.cpu.icache.tags.data_accesses           504141                       # Number of data accesses
system.cpu.dtb.walker.pwrStateResidencyTicks::UNDEFINED   1121416000                       # Cumulative time (in ticks) in various power states
system.cpu.interrupts.clk_domain.clock           6400                       # Clock period in ticks
system.cpu.itb.walker.pwrStateResidencyTicks::UNDEFINED   1121416000                       # Cumulative time (in ticks) in various power states
system.cpu.dcache.pwrStateResidencyTicks::UNDEFINED   1121416000                       # Cumulative time (in ticks) in various power states
system.cpu.dcache.demand_hits::.cpu.data       713452                       # number of demand (read+write) hits
system.cpu.dcache.demand_hits::total           713452                       # number of demand (read+write) hits
system.cpu.dcache.overall_hits::.cpu.data       713452                       # number of overall hits
system.cpu.dcache.overall_hits::total          713452                       # number of overall hits
system.cpu.dcache.demand_misses::.cpu.data        34770                       # number of demand (read+write) misses
system.cpu.dcache.demand_misses::total          34770                       # number of demand (read+write) misses
system.cpu.dcache.overall_misses::.cpu.data        34770                       # number of overall misses
system.cpu.dcache.overall_misses::total         34770                       # number of overall misses
system.cpu.dcache.demand_miss_latency::.cpu.data   1679604800                       # number of demand (read+write) miss cycles
system.cpu.dcache.demand_miss_latency::total   1679604800                       # number of demand (read+write) miss cycles
system.cpu.dcache.overall_miss_latency::.cpu.data   1679604800                       # number of overall miss cycles
system.cpu.dcache.overall_miss_latency::total   1679604800                       # number of overall miss cycles
system.cpu.dcache.demand_accesses::.cpu.data       748222                       # number of demand (read+write) accesses
system.cpu.dcache.demand_accesses::total       748222                       # number of demand (read+write) accesses
system.cpu.dcache.overall_accesses::.cpu.data       748222                       # number of overall (read+write) accesses
system.cpu.dcache.overall_accesses::total       748222                       # number of overall (read+write) accesses
system.cpu.dcache.demand_miss_rate::.cpu.data     0.046470                       # miss rate for demand accesses
system.cpu.dcache.demand_miss_rate::total     0.046470                       # miss rate for demand accesses
system.cpu.dcache.overall_miss_rate::.cpu.data     0.046470                       # miss rate for overall accesses
system.cpu.dcache.overall_miss_rate::total     0.046470                       # miss rate for overall accesses
system.cpu.dcache.demand_avg_miss_latency::.cpu.data 48306.148979                       # average overall miss latency
system.cpu.dcache.demand_avg_miss_latency::total 48306.148979                       # average overall miss latency
system.cpu.dcache.overall_avg_miss_latency::.cpu.data 48306.148979                       # average overall miss latency
system.cpu.dcache.overall_avg_miss_latency::total 48306.148979                       # average overall miss latency
system.cpu.dcache.blocked_cycles::no_mshrs        29309                       # number of cycles access was blocked
system.cpu.dcache.blocked_cycles::no_targets          138                       # number of cycles access was blocked
system.cpu.dcache.blocked::no_mshrs               769                       # number of cycles access was blocked
system.cpu.dcache.blocked::no_targets               1                       # number of cycles access was blocked
system.cpu.dcache.avg_blocked_cycles::no_mshrs    38.113134                       # average number of cycles each access was blocked
system.cpu.dcache.avg_blocked_cycles::no_targets          138                       # average number of cycles each access was blocked
system.cpu.dcache.unused_prefetches              1726                       # number of HardPF blocks evicted w/o reference
system.cpu.dcache.writebacks::.writebacks         2786                       # number of writebacks
system.cpu.dcache.writebacks::total              2786                       # number of writebacks
system.cpu.dcache.demand_mshr_hits::.cpu.data        22160                       # number of demand (read+write) MSHR hits
system.cpu.dcache.demand_mshr_hits::total        22160                       # number of demand (read+write) MSHR hits
system.cpu.dcache.overall_mshr_hits::.cpu.data        22160                       # number of overall MSHR hits
system.cpu.dcache.overall_mshr_hits::total        22160                       # number of overall MSHR hits
system.cpu.dcache.demand_mshr_misses::.cpu.data        12610                       # number of demand (read+write) MSHR misses
system.cpu.dcache.demand_mshr_misses::total        12610                       # number of demand (read+write) MSHR misses
system.cpu.dcache.overall_mshr_misses::.cpu.data        12610                       # number of overall MSHR misses
system.cpu.dcache.overall_mshr_misses::.cpu.dcache.prefetcher         4283                       # number of overall MSHR misses
system.cpu.dcache.overall_mshr_misses::total        16893                       # number of overall MSHR misses
system.cpu.dcache.demand_mshr_miss_latency::.cpu.data    576042400                       # number of demand (read+write) MSHR miss cycles
system.cpu.dcache.demand_mshr_miss_latency::total    576042400                       # number of demand (read+write) MSHR miss cycles
system.cpu.dcache.overall_mshr_miss_latency::.cpu.data    576042400                       # number of overall MSHR miss cycles
system.cpu.dcache.overall_mshr_miss_latency::.cpu.dcache.prefetcher    247743811                       # number of overall MSHR miss cycles
system.cpu.dcache.overall_mshr_miss_latency::total    823786211                       # number of overall MSHR miss cycles
system.cpu.dcache.demand_mshr_miss_rate::.cpu.data     0.016853                       # mshr miss rate for demand accesses
system.cpu.dcache.demand_mshr_miss_rate::total     0.016853                       # mshr miss rate for demand accesses
system.cpu.dcache.overall_mshr_miss_rate::.cpu.data     0.016853                       # mshr miss rate for overall accesses
system.cpu.dcache.overall_mshr_miss_rate::.cpu.dcache.prefetcher          inf                       # mshr miss rate for overall accesses
system.cpu.dcache.overall_mshr_miss_rate::total     0.022578                       # mshr miss rate for overall accesses
system.cpu.dcache.demand_avg_mshr_miss_latency::.cpu.data 45681.395718                       # average overall mshr miss latency
system.cpu.dcache.demand_avg_mshr_miss_latency::total 45681.395718                       # average overall mshr miss latency
system.cpu.dcache.overall_avg_mshr_miss_latency::.cpu.data 45681.395718                       # average overall mshr miss latency
system.cpu.dcache.overall_avg_mshr_miss_latency::.cpu.dcache.prefetcher 57843.523465                       # average overall mshr miss latency
system.cpu.dcache.overall_avg_mshr_miss_latency::total 48764.944711                       # average overall mshr miss latency
system.cpu.dcache.replacements                  15869                       # number of replacements
system.cpu.dcache.ReadReq_hits::.cpu.data       523874                       # number of ReadReq hits
system.cpu.dcache.ReadReq_hits::total          523874                       # number of ReadReq hits
system.cpu.dcache.ReadReq_misses::.cpu.data        32626                       # number of ReadReq misses
system.cpu.dcache.ReadReq_misses::total         32626                       # number of ReadReq misses
system.cpu.dcache.ReadReq_miss_latency::.cpu.data   1574126400                       # number of ReadReq miss cycles
system.cpu.dcache.ReadReq_miss_latency::total   1574126400                       # number of ReadReq miss cycles
system.cpu.dcache.ReadReq_accesses::.cpu.data       556500                       # number of ReadReq accesses(hits+misses)
system.cpu.dcache.ReadReq_accesses::total       556500                       # number of ReadReq accesses(hits+misses)
system.cpu.dcache.ReadReq_miss_rate::.cpu.data     0.058627                       # miss rate for ReadReq accesses
system.cpu.dcache.ReadReq_miss_rate::total     0.058627                       # miss rate for ReadReq accesses
system.cpu.dcache.ReadReq_avg_miss_latency::.cpu.data 48247.606204                       # average ReadReq miss latency
system.cpu.dcache.ReadReq_avg_miss_latency::total 48247.606204                       # average ReadReq miss latency
system.cpu.dcache.ReadReq_mshr_hits::.cpu.data        22123                       # number of ReadReq MSHR hits
system.cpu.dcache.ReadReq_mshr_hits::total        22123                       # number of ReadReq MSHR hits
system.cpu.dcache.ReadReq_mshr_misses::.cpu.data        10503                       # number of ReadReq MSHR misses
system.cpu.dcache.ReadReq_mshr_misses::total        10503                       # number of ReadReq MSHR misses
system.cpu.dcache.ReadReq_mshr_miss_latency::.cpu.data    473660000                       # number of ReadReq MSHR miss cycles
system.cpu.dcache.ReadReq_mshr_miss_latency::total    473660000                       # number of ReadReq MSHR miss cycles
system.cpu.dcache.ReadReq_mshr_miss_rate::.cpu.data     0.018873                       # mshr miss rate for ReadReq accesses
system.cpu.dcache.ReadReq_mshr_miss_rate::total     0.018873                       # mshr miss rate for ReadReq accesses
system.cpu.dcache.ReadReq_avg_mshr_miss_latency::.cpu.data 45097.591164                       # average ReadReq mshr miss latency
system.cpu.dcache.ReadReq_avg_mshr_miss_latency::total 45097.591164                       # average ReadReq mshr miss latency
system.cpu.dcache.WriteReq_hits::.cpu.data       189578                       # number of WriteReq hits
system.cpu.dcache.WriteReq_hits::total         189578                       # number of WriteReq hits
system.cpu.dcache.WriteReq_misses::.cpu.data         2144                       # number of WriteReq misses
system.cpu.dcache.WriteReq_misses::total         2144                       # number of WriteReq misses
system.cpu.dcache.WriteReq_miss_latency::.cpu.data    105478400                       # number of WriteReq miss cycles
system.cpu.dcache.WriteReq_miss_latency::total    105478400                       # number of WriteReq miss cycles
system.cpu.dcache.WriteReq_accesses::.cpu.data       191722                       # number of WriteReq accesses(hits+misses)
system.cpu.dcache.WriteReq_accesses::total       191722                       # number of WriteReq accesses(hits+misses)
system.cpu.dcache.WriteReq_miss_rate::.cpu.data     0.011183                       # miss rate for WriteReq accesses
system.cpu.dcache.WriteReq_miss_rate::total     0.011183                       # miss rate for WriteReq accesses
system.cpu.dcache.WriteReq_avg_miss_latency::.cpu.data 49197.014925                       # average WriteReq miss latency
system.cpu.dcache.WriteReq_avg_miss_latency::total 49197.014925                       # average WriteReq miss latency
system.cpu.dcache.WriteReq_mshr_hits::.cpu.data           37                       # number of WriteReq MSHR hits
system.cpu.dcache.WriteReq_mshr_hits::total           37                       # number of WriteReq MSHR hits
system.cpu.dcache.WriteReq_mshr_misses::.cpu.data         2107                       # number of WriteReq MSHR misses
system.cpu.dcache.WriteReq_mshr_misses::total         2107                       # number of WriteReq MSHR misses
system.cpu.dcache.WriteReq_mshr_miss_latency::.cpu.data    102382400                       # number of WriteReq MSHR miss cycles
[...]
system.l2cache.overall_mshr_miss_latency::total     23012365                       # number of overall MSHR miss cycles
system.l2cache.demand_mshr_miss_rate::.cpu.inst     0.510870                       # mshr miss rate for demand accesses
system.l2cache.demand_mshr_miss_rate::.cpu.data     0.537037                       # mshr miss rate for demand accesses
system.l2cache.demand_mshr_miss_rate::.cpu.dcache.prefetcher     0.727273                       # mshr miss rate for demand accesses
system.l2cache.demand_mshr_miss_rate::total     0.531944                       # mshr miss rate for demand accesses
system.l2cache.overall_mshr_miss_rate::.cpu.inst     0.510870                       # mshr miss rate for overall accesses
system.l2cache.overall_mshr_miss_rate::.cpu.data     0.537037                       # mshr miss rate for overall accesses
system.l2cache.overall_mshr_miss_rate::.cpu.dcache.prefetcher     0.727273                       # mshr miss rate for overall accesses
system.l2cache.overall_mshr_miss_rate::.l2cache.prefetcher          inf                       # mshr miss rate for overall accesses
system.l2cache.overall_mshr_miss_rate::total     0.534722                       # mshr miss rate for overall accesses
system.l2cache.demand_avg_mshr_miss_latency::.cpu.inst 59189.787234                       # average overall mshr miss latency
system.l2cache.demand_avg_mshr_miss_latency::.cpu.data 59058.620690                       # average overall mshr miss latency
system.l2cache.demand_avg_mshr_miss_latency::.cpu.dcache.prefetcher 66511.500000                       # average overall mshr miss latency
system.l2cache.demand_avg_mshr_miss_latency::total 59761.796345                       # average overall mshr miss latency
system.l2cache.overall_avg_mshr_miss_latency::.cpu.inst 59189.787234                       # average overall mshr miss latency
system.l2cache.overall_avg_mshr_miss_latency::.cpu.data 59058.620690                       # average overall mshr miss latency
system.l2cache.overall_avg_mshr_miss_latency::.cpu.dcache.prefetcher 66511.500000                       # average overall mshr miss latency
system.l2cache.overall_avg_mshr_miss_latency::.l2cache.prefetcher 61798.500000                       # average overall mshr miss latency
system.l2cache.overall_avg_mshr_miss_latency::total 59772.376623                       # average overall mshr miss latency
system.l2cache.replacements                       393                       # number of replacements
system.l2cache.WritebackDirty_hits::.writebacks           72                       # number of WritebackDirty hits
system.l2cache.WritebackDirty_hits::total           72                       # number of WritebackDirty hits
system.l2cache.WritebackDirty_accesses::.writebacks           72                       # number of WritebackDirty accesses(hits+misses)
system.l2cache.WritebackDirty_accesses::total           72                       # number of WritebackDirty accesses(hits+misses)
system.l2cache.CleanEvict_mshr_misses::.writebacks           10                       # number of CleanEvict MSHR misses
system.l2cache.CleanEvict_mshr_misses::total           10                       # number of CleanEvict MSHR misses
system.l2cache.CleanEvict_mshr_miss_rate::.writebacks          inf                       # mshr miss rate for CleanEvict accesses
system.l2cache.CleanEvict_mshr_miss_rate::total          inf                       # mshr miss rate for CleanEvict accesses
system.l2cache.HardPFReq_mshr_misses::.l2cache.prefetcher            2                       # number of HardPFReq MSHR misses
system.l2cache.HardPFReq_mshr_misses::total            2                       # number of HardPFReq MSHR misses
system.l2cache.HardPFReq_mshr_miss_latency::.l2cache.prefetcher       123597                       # number of HardPFReq MSHR miss cycles
system.l2cache.HardPFReq_mshr_miss_latency::total       123597                       # number of HardPFReq MSHR miss cycles
system.l2cache.HardPFReq_mshr_miss_rate::.l2cache.prefetcher          inf                       # mshr miss rate for HardPFReq accesses
system.l2cache.HardPFReq_mshr_miss_rate::total          inf                       # mshr miss rate for HardPFReq accesses
system.l2cache.HardPFReq_avg_mshr_miss_latency::.l2cache.prefetcher 61798.500000                       # average HardPFReq mshr miss latency
system.l2cache.HardPFReq_avg_mshr_miss_latency::total 61798.500000                       # average HardPFReq mshr miss latency
system.l2cache.ReadExReq_hits::.cpu.data            4                       # number of ReadExReq hits
system.l2cache.ReadExReq_hits::total                4                       # number of ReadExReq hits
system.l2cache.ReadExReq_misses::.cpu.data            6                       # number of ReadExReq misses
system.l2cache.ReadExReq_misses::total              6                       # number of ReadExReq misses
system.l2cache.ReadExReq_miss_latency::.cpu.data       430000                       # number of ReadExReq miss cycles
system.l2cache.ReadExReq_miss_latency::total       430000                       # number of ReadExReq miss cycles
system.l2cache.ReadExReq_accesses::.cpu.data           10                       # number of ReadExReq accesses(hits+misses)
system.l2cache.ReadExReq_accesses::total           10                       # number of ReadExReq accesses(hits+misses)
system.l2cache.ReadExReq_miss_rate::.cpu.data     0.600000                       # miss rate for ReadExReq accesses
system.l2cache.ReadExReq_miss_rate::total     0.600000                       # miss rate for ReadExReq accesses
system.l2cache.ReadExReq_avg_miss_latency::.cpu.data 71666.666667                       # average ReadExReq miss latency
system.l2cache.ReadExReq_avg_miss_latency::total 71666.666667                       # average ReadExReq miss latency
system.l2cache.ReadExReq_mshr_misses::.cpu.data            6                       # number of ReadExReq MSHR misses
system.l2cache.ReadExReq_mshr_misses::total            6                       # number of ReadExReq MSHR misses
system.l2cache.ReadExReq_mshr_miss_latency::.cpu.data       382000                       # number of ReadExReq MSHR miss cycles
system.l2cache.ReadExReq_mshr_miss_latency::total       382000                       # number of ReadExReq MSHR miss cycles
system.l2cache.ReadExReq_mshr_miss_rate::.cpu.data     0.600000                       # mshr miss rate for ReadExReq accesses
system.l2cache.ReadExReq_mshr_miss_rate::total     0.600000                       # mshr miss rate for ReadExReq accesses
system.l2cache.ReadExReq_avg_mshr_miss_latency::.cpu.data 63666.666667                       # average ReadExReq mshr miss latency
system.l2cache.ReadExReq_avg_mshr_miss_latency::total 63666.666667                       # average ReadExReq mshr miss latency
system.l2cache.ReadSharedReq_hits::.cpu.inst          225                       # number of ReadSharedReq hits
system.l2cache.ReadSharedReq_hits::.cpu.data           96                       # number of ReadSharedReq hits
system.l2cache.ReadSharedReq_hits::.cpu.dcache.prefetcher           12                       # number of ReadSharedReq hits
system.l2cache.ReadSharedReq_hits::total          333                       # number of ReadSharedReq hits
system.l2cache.ReadSharedReq_misses::.cpu.inst          235                       # number of ReadSharedReq misses
system.l2cache.ReadSharedReq_misses::.cpu.data          110                       # number of ReadSharedReq misses
system.l2cache.ReadSharedReq_misses::.cpu.dcache.prefetcher           32                       # number of ReadSharedReq misses
system.l2cache.ReadSharedReq_misses::total          377                       # number of ReadSharedReq misses
system.l2cache.ReadSharedReq_miss_latency::.cpu.inst     15781600                       # number of ReadSharedReq miss cycles
system.l2cache.ReadSharedReq_miss_latency::.cpu.data      7348800                       # number of ReadSharedReq miss cycles
system.l2cache.ReadSharedReq_miss_latency::.cpu.dcache.prefetcher      2384368                       # number of ReadSharedReq miss cycles
system.l2cache.ReadSharedReq_miss_latency::total     25514768                       # number of ReadSharedReq miss cycles
system.l2cache.ReadSharedReq_accesses::.cpu.inst          460                       # number of ReadSharedReq accesses(hits+misses)
system.l2cache.ReadSharedReq_accesses::.cpu.data          206                       # number of ReadSharedReq accesses(hits+misses)
system.l2cache.ReadSharedReq_accesses::.cpu.dcache.prefetcher           44                       # number of ReadSharedReq accesses(hits+misses)
system.l2cache.ReadSharedReq_accesses::total          710                       # number of ReadSharedReq accesses(hits+misses)
system.l2cache.ReadSharedReq_miss_rate::.cpu.inst     0.510870                       # miss rate for ReadSharedReq accesses
system.l2cache.ReadSharedReq_miss_rate::.cpu.data     0.533981                       # miss rate for ReadSharedReq accesses
system.l2cache.ReadSharedReq_miss_rate::.cpu.dcache.prefetcher     0.727273                       # miss rate for ReadSharedReq accesses
system.l2cache.ReadSharedReq_miss_rate::total     0.530986                       # miss rate for ReadSharedReq accesses
system.l2cache.ReadSharedReq_avg_miss_latency::.cpu.inst 67155.744681                       # average ReadSharedReq miss latency
system.l2cache.ReadSharedReq_avg_miss_latency::.cpu.data 66807.272727                       # average ReadSharedReq miss latency
system.l2cache.ReadSharedReq_avg_miss_latency::.cpu.dcache.prefetcher 74511.500000                       # average ReadSharedReq miss latency
system.l2cache.ReadSharedReq_avg_miss_latency::total 67678.429708                       # average ReadSharedReq miss latency
system.l2cache.ReadSharedReq_mshr_misses::.cpu.inst          235                       # number of ReadSharedReq MSHR misses
system.l2cache.ReadSharedReq_mshr_misses::.cpu.data          110                       # number of ReadSharedReq MSHR misses
system.l2cache.ReadSharedReq_mshr_misses::.cpu.dcache.prefetcher           32                       # number of ReadSharedReq MSHR misses
system.l2cache.ReadSharedReq_mshr_misses::total          377                       # number of ReadSharedReq MSHR misses
system.l2cache.ReadSharedReq_mshr_miss_latency::.cpu.inst     13909600                       # number of ReadSharedReq MSHR miss cycles
system.l2cache.ReadSharedReq_mshr_miss_latency::.cpu.data      6468800                       # number of ReadSharedReq MSHR miss cycles
system.l2cache.ReadSharedReq_mshr_miss_latency::.cpu.dcache.prefetcher      2128368                       # number of ReadSharedReq MSHR miss cycles
system.l2cache.ReadSharedReq_mshr_miss_latency::total     22506768                       # number of ReadSharedReq MSHR miss cycles
system.l2cache.ReadSharedReq_mshr_miss_rate::.cpu.inst     0.510870                       # mshr miss rate for ReadSharedReq accesses
system.l2cache.ReadSharedReq_mshr_miss_rate::.cpu.data     0.533981                       # mshr miss rate for ReadSharedReq accesses
system.l2cache.ReadSharedReq_mshr_miss_rate::.cpu.dcache.prefetcher     0.727273                       # mshr miss rate for ReadSharedReq accesses
system.l2cache.ReadSharedReq_mshr_miss_rate::total     0.530986                       # mshr miss rate for ReadSharedReq accesses
system.l2cache.ReadSharedReq_avg_mshr_miss_latency::.cpu.inst 59189.787234                       # average ReadSharedReq mshr miss latency
system.l2cache.ReadSharedReq_avg_mshr_miss_latency::.cpu.data 58807.272727                       # average ReadSharedReq mshr miss latency
system.l2cache.ReadSharedReq_avg_mshr_miss_latency::.cpu.dcache.prefetcher 66511.500000                       # average ReadSharedReq mshr miss latency
system.l2cache.ReadSharedReq_avg_mshr_miss_latency::total 59699.649867                       # average ReadSharedReq mshr miss latency
system.l2cache.prefetcher.pwrStateResidencyTicks::UNDEFINED     28112400                       # Cumulative time (in ticks) in various power states
system.l2cache.tags.pwrStateResidencyTicks::UNDEFINED     28112400                       # Cumulative time (in ticks) in various power states
system.l2cache.tags.tagsinuse                    4096                       # Cycle average of tags in use
system.l2cache.tags.total_refs                  13911                       # Total number of references to valid blocks.
system.l2cache.tags.sampled_refs                 4489                       # Sample count of references to valid blocks.
system.l2cache.tags.avg_refs                 3.098908                       # Average number of references to valid blocks.
system.l2cache.tags.warmup_cycle                    0                       # Cycle when the warmup percentage was hit.
system.l2cache.tags.occ_blocks::.writebacks    40.055605                       # Average occupied blocks per requestor
system.l2cache.tags.occ_blocks::.cpu.inst  1138.306089                       # Average occupied blocks per requestor
system.l2cache.tags.occ_blocks::.cpu.data  1814.614460                       # Average occupied blocks per requestor
system.l2cache.tags.occ_blocks::.cpu.dcache.prefetcher   977.604159                       # Average occupied blocks per requestor
system.l2cache.tags.occ_blocks::.l2cache.prefetcher   125.419687                       # Average occupied blocks per requestor
system.l2cache.tags.occ_percent::.writebacks     0.009779                       # Average percentage of cache occupancy
system.l2cache.tags.occ_percent::.cpu.inst     0.277907                       # Average percentage of cache occupancy
system.l2cache.tags.occ_percent::.cpu.data     0.443021                       # Average percentage of cache occupancy
system.l2cache.tags.occ_percent::.cpu.dcache.prefetcher     0.238673                       # Average percentage of cache occupancy
system.l2cache.tags.occ_percent::.l2cache.prefetcher     0.030620                       # Average percentage of cache occupancy
system.l2cache.tags.occ_percent::total              1                       # Average percentage of cache occupancy
system.l2cache.tags.occ_task_id_blocks::1022         1048                       # Occupied blocks per task id
system.l2cache.tags.occ_task_id_blocks::1024         3048                       # Occupied blocks per task id
system.l2cache.tags.age_task_id_blocks_1022::0            9                       # Occupied blocks per task id
system.l2cache.tags.age_task_id_blocks_1022::1           66                       # Occupied blocks per task id
system.l2cache.tags.age_task_id_blocks_1022::2          971                       # Occupied blocks per task id
system.l2cache.tags.age_task_id_blocks_1022::3            2                       # Occupied blocks per task id
system.l2cache.tags.age_task_id_blocks_1024::0          171                       # Occupied blocks per task id
system.l2cache.tags.age_task_id_blocks_1024::1          622                       # Occupied blocks per task id
system.l2cache.tags.age_task_id_blocks_1024::2         2212                       # Occupied blocks per task id
system.l2cache.tags.age_task_id_blocks_1024::3           43                       # Occupied blocks per task id
system.l2cache.tags.occ_task_id_percent::1022     0.255859                       # Percentage of cache occupancy per task id
system.l2cache.tags.occ_task_id_percent::1024     0.744141                       # Percentage of cache occupancy per task id
system.l2cache.tags.tag_accesses                11897                       # Number of tag accesses
system.l2cache.tags.data_accesses               11897                       # Number of data accesses
system.mem_ctrl.pwrStateResidencyTicks::UNDEFINED     28112400                       # Cumulative time (in ticks) in various power states
system.mem_ctrl.bytes_read::.cpu.inst           14976                       # Number of bytes read from this memory
system.mem_ctrl.bytes_read::.cpu.data            7424                       # Number of bytes read from this memory
system.mem_ctrl.bytes_read::.cpu.dcache.prefetcher         2048                       # Number of bytes read from this memory
system.mem_ctrl.bytes_read::.l2cache.prefetcher          128                       # Number of bytes read from this memory
system.mem_ctrl.bytes_read::total               24576                       # Number of bytes read from this memory
system.mem_ctrl.bytes_inst_read::.cpu.inst        14976                       # Number of instructions bytes read from this memory
system.mem_ctrl.bytes_inst_read::total          14976                       # Number of instructions bytes read from this memory
system.mem_ctrl.bytes_written::.writebacks         1472                       # Number of bytes written to this memory
system.mem_ctrl.bytes_written::total             1472                       # Number of bytes written to this memory
system.mem_ctrl.num_reads::.cpu.inst              234                       # Number of read requests responded to by this memory
system.mem_ctrl.num_reads::.cpu.data              116                       # Number of read requests responded to by this memory
system.mem_ctrl.num_reads::.cpu.dcache.prefetcher           32                       # Number of read requests responded to by this memory
system.mem_ctrl.num_reads::.l2cache.prefetcher            2                       # Number of read requests responded to by this memory
system.mem_ctrl.num_reads::total                  384                       # Number of read requests responded to by this memory
system.mem_ctrl.num_writes::.writebacks            23                       # Number of write requests responded to by this memory
system.mem_ctrl.num_writes::total                  23                       # Number of write requests responded to by this memory
system.mem_ctrl.bw_read::.cpu.inst          532718658                       # Total read bandwidth from this memory (bytes/s)
system.mem_ctrl.bw_read::.cpu.data          264082754                       # Total read bandwidth from this memory (bytes/s)
system.mem_ctrl.bw_read::.cpu.dcache.prefetcher     72850415                       # Total read bandwidth from this memory (bytes/s)
system.mem_ctrl.bw_read::.l2cache.prefetcher      4553151                       # Total read bandwidth from this memory (bytes/s)
system.mem_ctrl.bw_read::total              874204977                       # Total read bandwidth from this memory (bytes/s)
system.mem_ctrl.bw_inst_read::.cpu.inst     532718658                       # Instruction read bandwidth from this memory (bytes/s)
system.mem_ctrl.bw_inst_read::total         532718658                       # Instruction read bandwidth from this memory (bytes/s)
system.mem_ctrl.bw_write::.writebacks        52361236                       # Write bandwidth from this memory (bytes/s)
system.mem_ctrl.bw_write::total              52361236                       # Write bandwidth from this memory (bytes/s)
system.mem_ctrl.bw_total::.writebacks        52361236                       # Total bandwidth to/from this memory (bytes/s)
system.mem_ctrl.bw_total::.cpu.inst         532718658                       # Total bandwidth to/from this memory (bytes/s)
system.mem_ctrl.bw_total::.cpu.data         264082754                       # Total bandwidth to/from this memory (bytes/s)
system.mem_ctrl.bw_total::.cpu.dcache.prefetcher     72850415                       # Total bandwidth to/from this memory (bytes/s)
system.mem_ctrl.bw_total::.l2cache.prefetcher      4553151                       # Total bandwidth to/from this memory (bytes/s)
system.mem_ctrl.bw_total::total             926566213                       # Total bandwidth to/from this memory (bytes/s)

---------- End Simulation Statistics   ----------
