
---------- Begin Simulation Statistics ----------
final_tick                                 1087374800                       # Number of ticks from beginning of simulation (restored from checkpoints and never reset)
host_inst_rate                                 184750                       # Simulator instruction rate (inst/s)
host_mem_usage                                4402744                       # Number of bytes of host memory used
host_op_rate                                   320930                       # Simulator op (including micro ops) rate (op/s)
host_seconds                                    11.13                       # Real time elapsed on the host
host_tick_rate                               97673292                       # Simulator tick rate (ticks/s)
sim_freq                                 1000000000000                       # Frequency of simulated ticks
sim_insts                                     2056759                       # Number of instructions simulated
sim_ops                                       3572838                       # Number of ops (including micro ops) simulated
sim_seconds                                  0.001087                       # Number of seconds simulated
sim_ticks                                  1087374800                       # Number of ticks simulated
system.cpu.branchPred.BTBCorrect                    0                       # Number of correct BTB predictions (this stat may not work properly.
system.cpu.branchPred.BTBHitPct              0.000000                       # BTB Hit Percentage
system.cpu.branchPred.BTBHits                       0                       # Number of BTB hits
system.cpu.branchPred.BTBLookups               436163                       # Number of BTB lookups
system.cpu.branchPred.RASInCorrect                  6                       # Number of incorrect RAS predictions.
system.cpu.branchPred.condIncorrect             24616                       # Number of conditional branches incorrect
system.cpu.branchPred.condPredicted            462981                       # Number of conditional branches predicted
system.cpu.branchPred.indirectHits             238942                       # Number of indirect target hits.
system.cpu.branchPred.indirectLookups          436163                       # Number of indirect predictor lookups.
system.cpu.branchPred.indirectMisses           197221                       # Number of indirect misses.
system.cpu.branchPred.lookups                  489235                       # Number of BP lookups
system.cpu.branchPred.usedRAS                   11310                       # Number of times the RAS was used to get a target.
system.cpu.branchPredindirectMispredicted        12430                       # Number of mispredicted indirect branches.
system.cpu.cc_regfile_reads                   2355808                       # number of cc regfile reads
system.cpu.cc_regfile_writes                  1933675                       # number of cc regfile writes
system.cpu.commit.amos                              0                       # Number of atomic instructions committed
system.cpu.commit.branchMispredicts             24675                       # The number of times a branch was mispredicted
system.cpu.commit.branches                     342878                       # Number of branches committed
system.cpu.commit.bw_lim_events                593047                       # number cycles where commit BW limit reached
system.cpu.commit.commitNonSpecStalls             732                       # The number of times commit has been forced to stall to communicate backwards
system.cpu.commit.commitSquashedInsts          892196                       # The number of squashed insts skipped by commit
system.cpu.commit.committedInsts              2056759                       # Number of instructions committed
system.cpu.commit.committedOps                3572838                       # Number of ops (including micro ops) committed
system.cpu.commit.committed_per_cycle::samples      2325071                       # Number of insts commited each cycle
system.cpu.commit.committed_per_cycle::mean     1.536658                       # Number of insts commited each cycle
system.cpu.commit.committed_per_cycle::stdev     1.723191                       # Number of insts commited each cycle
system.cpu.commit.committed_per_cycle::underflows            0      0.00%      0.00% # Number of insts commited each cycle
system.cpu.commit.committed_per_cycle::0      1156251     49.73%     49.73% # Number of insts commited each cycle
system.cpu.commit.committed_per_cycle::1       178448      7.67%     57.40% # Number of insts commited each cycle
system.cpu.commit.committed_per_cycle::2       169773      7.30%     64.71% # Number of insts commited each cycle
system.cpu.commit.committed_per_cycle::3       227552      9.79%     74.49% # Number of insts commited each cycle
system.cpu.commit.committed_per_cycle::4       593047     25.51%    100.00% # Number of insts commited each cycle
system.cpu.commit.committed_per_cycle::overflows            0      0.00%    100.00% # Number of insts commited each cycle
system.cpu.commit.committed_per_cycle::min_value            0                       # Number of insts commited each cycle
system.cpu.commit.committed_per_cycle::max_value            4                       # Number of insts commited each cycle
system.cpu.commit.committed_per_cycle::total      2325071                       # Number of insts commited each cycle
system.cpu.commit.fp_insts                      73106                       # Number of committed floating point instructions.
system.cpu.commit.function_calls                 9460                       # Number of function calls committed.
system.cpu.commit.int_insts                   3518375                       # Number of committed integer instructions.
system.cpu.commit.loads                        488562                       # Number of loads committed
system.cpu.commit.membars                           1                       # Number of memory barriers committed
system.cpu.commit.op_class_0::No_OpClass        20275      0.57%      0.57% # Class of committed instruction
system.cpu.commit.op_class_0::IntAlu          2812873     78.73%     79.30% # Class of committed instruction
system.cpu.commit.op_class_0::IntMult            1787      0.05%     79.35% # Class of committed instruction
system.cpu.commit.op_class_0::IntDiv            37861      1.06%     80.41% # Class of committed instruction
system.cpu.commit.op_class_0::FloatAdd           2852      0.08%     80.49% # Class of committed instruction
system.cpu.commit.op_class_0::FloatCmp              0      0.00%     80.49% # Class of committed instruction
system.cpu.commit.op_class_0::FloatCvt           1200      0.03%     80.52% # Class of committed instruction
system.cpu.commit.op_class_0::FloatMult             0      0.00%     80.52% # Class of committed instruction
system.cpu.commit.op_class_0::FloatMultAcc            0      0.00%     80.52% # Class of committed instruction
system.cpu.commit.op_class_0::FloatDiv              0      0.00%     80.52% # Class of committed instruction
system.cpu.commit.op_class_0::FloatMisc             0      0.00%     80.52% # Class of committed instruction
system.cpu.commit.op_class_0::FloatSqrt             0      0.00%     80.52% # Class of committed instruction
system.cpu.commit.op_class_0::SimdAdd            6206      0.17%     80.69% # Class of committed instruction
system.cpu.commit.op_class_0::SimdAddAcc            0      0.00%     80.69% # Class of committed instruction
system.cpu.commit.op_class_0::SimdAlu           11160      0.31%     81.01% # Class of committed instruction
system.cpu.commit.op_class_0::SimdCmp               0      0.00%     81.01% # Class of committed instruction
system.cpu.commit.op_class_0::SimdCvt           12094      0.34%     81.34% # Class of committed instruction
system.cpu.commit.op_class_0::SimdMisc           6501      0.18%     81.53% # Class of committed instruction
system.cpu.commit.op_class_0::SimdMult              0      0.00%     81.53% # Class of committed instruction
system.cpu.commit.op_class_0::SimdMultAcc            0      0.00%     81.53% # Class of committed instruction
system.cpu.commit.op_class_0::SimdShift          1091      0.03%     81.56% # Class of committed instruction
system.cpu.commit.op_class_0::SimdShiftAcc            0      0.00%     81.56% # Class of committed instruction
system.cpu.commit.op_class_0::SimdDiv               0      0.00%     81.56% # Class of committed instruction
system.cpu.commit.op_class_0::SimdSqrt              0      0.00%     81.56% # Class of committed instruction
system.cpu.commit.op_class_0::SimdFloatAdd            0      0.00%     81.56% # Class of committed instruction
system.cpu.commit.op_class_0::SimdFloatAlu            0      0.00%     81.56% # Class of committed instruction
system.cpu.commit.op_class_0::SimdFloatCmp            0      0.00%     81.56% # Class of committed instruction
system.cpu.commit.op_class_0::SimdFloatCvt            0      0.00%     81.56% # Class of committed instruction
system.cpu.commit.op_class_0::SimdFloatDiv            0      0.00%     81.56% # Class of committed instruction
system.cpu.commit.op_class_0::SimdFloatMisc            0      0.00%     81.56% # Class of committed instruction
system.cpu.commit.op_class_0::SimdFloatMult            0      0.00%     81.56% # Class of committed instruction
system.cpu.commit.op_class_0::SimdFloatMultAcc            0      0.00%     81.56% # Class of committed instruction
system.cpu.commit.op_class_0::SimdFloatSqrt            0      0.00%     81.56% # Class of committed instruction
system.cpu.commit.op_class_0::SimdReduceAdd            0      0.00%     81.56% # Class of committed instruction
system.cpu.commit.op_class_0::SimdReduceAlu            0      0.00%     81.56% # Class of committed instruction
system.cpu.commit.op_class_0::SimdReduceCmp            0      0.00%     81.56% # Class of committed instruction
system.cpu.commit.op_class_0::SimdFloatReduceAdd            0      0.00%     81.56% # Class of committed instruction
system.cpu.commit.op_class_0::SimdFloatReduceCmp            0      0.00%     81.56% # Class of committed instruction
system.cpu.commit.op_class_0::SimdAes               0      0.00%     81.56% # Class of committed instruction
system.cpu.commit.op_class_0::SimdAesMix            0      0.00%     81.56% # Class of committed instruction
system.cpu.commit.op_class_0::SimdSha1Hash            0      0.00%     81.56% # Class of committed instruction
system.cpu.commit.op_class_0::SimdSha1Hash2            0      0.00%     81.56% # Class of committed instruction
system.cpu.commit.op_class_0::SimdSha256Hash            0      0.00%     81.56% # Class of committed instruction
system.cpu.commit.op_class_0::SimdSha256Hash2            0      0.00%     81.56% # Class of committed instruction
system.cpu.commit.op_class_0::SimdShaSigma2            0      0.00%     81.56% # Class of committed instruction
system.cpu.commit.op_class_0::SimdShaSigma3            0      0.00%     81.56% # Class of committed instruction
system.cpu.commit.op_class_0::SimdPredAlu            0      0.00%     81.56% # Class of committed instruction
system.cpu.commit.op_class_0::MemRead          469464     13.14%     94.70% # Class of committed instruction
system.cpu.commit.op_class_0::MemWrite         158307      4.43%     99.13% # Class of committed instruction
system.cpu.commit.op_class_0::FloatMemRead        19098      0.53%     99.66% # Class of committed instruction
system.cpu.commit.op_class_0::FloatMemWrite        12069      0.34%    100.00% # Class of committed instruction
system.cpu.commit.op_class_0::IprAccess             0      0.00%    100.00% # Class of committed instruction
system.cpu.commit.op_class_0::InstPrefetch            0      0.00%    100.00% # Class of committed instruction
system.cpu.commit.op_class_0::total           3572838                       # Class of committed instruction
system.cpu.commit.refs                         658938                       # Number of memory references committed
system.cpu.commit.swp_count                         0                       # Number of s/w prefetches committed
system.cpu.commit.vec_insts                         0                       # Number of committed Vector instructions.
system.cpu.committedInsts                     2056759                       # Number of Instructions Simulated
system.cpu.committedOps                       3572838                       # Number of Ops (including micro ops) Simulated
system.cpu.cpi                               1.321710                       # CPI: Cycles Per Instruction
system.cpu.cpi_total                         1.321710                       # CPI: Total CPI of All Threads
system.cpu.dcache.prefetcher.num_hwpf_issued         7823                       # number of hwpf issued
system.cpu.dcache.prefetcher.pfBufferHit        33854                       # number of redundant prefetches already in prefetch queue
system.cpu.dcache.prefetcher.pfIdentified        49155                       # number of prefetch candidates identified
system.cpu.dcache.prefetcher.pfInCache              0                       # number of redundant prefetches already in cache/mshr dropped
system.cpu.dcache.prefetcher.pfRemovedFull            0                       # number of prefetches dropped due to prefetch queue size
system.cpu.dcache.prefetcher.pfSpanPage          4257                       # number of prefetches that crossed the page
system.cpu.decode.BlockedCycles               1026395                       # Number of cycles decode is blocked
system.cpu.decode.DecodedInsts                4686057                       # Number of instructions handled by decode
system.cpu.decode.IdleCycles                   291644                       # Number of cycles decode is idle
system.cpu.decode.RunCycles                   1136425                       # Number of cycles decode is running
system.cpu.decode.SquashCycles                  24739                       # Number of cycles decode is squashing
system.cpu.decode.UnblockCycles                 89560                       # Number of cycles decode is unblocking
system.cpu.dtb.rdAccesses                      573074                       # TLB accesses on read requests
system.cpu.dtb.rdMisses                          2184                       # TLB misses on read requests
system.cpu.dtb.wrAccesses                      189770                       # TLB accesses on write requests
system.cpu.dtb.wrMisses                           155                       # TLB misses on write requests
system.cpu.fetch.Branches                      489235                       # Number of branches that fetch encountered
system.cpu.fetch.CacheLines                    242032                       # Number of cache lines fetched
system.cpu.fetch.Cycles                       2214846                       # Number of cycles fetch has run and was not squashing or blocked
system.cpu.fetch.IcacheSquashes                  4613                       # Number of outstanding Icache misses that were squashed
system.cpu.fetch.Insts                        2832865                       # Number of instructions fetch has processed
system.cpu.fetch.MiscStallCycles                   84                       # Number of cycles fetch has spent waiting on interrupts, or bad addresses, or out of MSHRs
system.cpu.fetch.PendingQuiesceStallCycles            6                       # Number of stall cycles due to pending quiesce instructions
system.cpu.fetch.PendingTrapStallCycles           465                       # Number of stall cycles due to pending traps
system.cpu.fetch.SquashCycles                   49478                       # Number of cycles fetch has spent squashing
system.cpu.fetch.branchRate                  0.179969                       # Number of branch fetches per cycle
system.cpu.fetch.icacheStallCycles             328623                       # Number of cycles fetch is stalled on an Icache miss
system.cpu.fetch.predictedBranches             250252                       # Number of branches that fetch has predicted taken
system.cpu.fetch.rate                        1.042093                       # Number of inst fetches per cycle
system.cpu.fetch.rateDist::samples            2568763                       # Number of instructions fetched each cycle (Total)
system.cpu.fetch.rateDist::mean              1.933267                       # Number of instructions fetched each cycle (Total)
system.cpu.fetch.rateDist::stdev             1.930568                       # Number of instructions fetched each cycle (Total)
system.cpu.fetch.rateDist::underflows               0      0.00%      0.00% # Number of instructions fetched each cycle (Total)
system.cpu.fetch.rateDist::0                  1223180     47.62%     47.62% # Number of instructions fetched each cycle (Total)
system.cpu.fetch.rateDist::1                    73238      2.85%     50.47% # Number of instructions fetched each cycle (Total)
system.cpu.fetch.rateDist::2                    59826      2.33%     52.80% # Number of instructions fetched each cycle (Total)
system.cpu.fetch.rateDist::3                    76860      2.99%     55.79% # Number of instructions fetched each cycle (Total)
system.cpu.fetch.rateDist::4                  1135659     44.21%    100.00% # Number of instructions fetched each cycle (Total)
system.cpu.fetch.rateDist::overflows                0      0.00%    100.00% # Number of instructions fetched each cycle (Total)
system.cpu.fetch.rateDist::min_value                0                       # Number of instructions fetched each cycle (Total)
system.cpu.fetch.rateDist::max_value                4                       # Number of instructions fetched each cycle (Total)
system.cpu.fetch.rateDist::total              2568763                       # Number of instructions fetched each cycle (Total)
system.cpu.fp_regfile_reads                    118254                       # number of floating regfile reads
system.cpu.fp_regfile_writes                    64897                       # number of floating regfile writes
system.cpu.fuPool.fu_ticks_busy::IntALU(0)    216398000                       # Total ticks fu was busy
system.cpu.fuPool.fu_ticks_busy::IntALU(1)    216397600                       # Total ticks fu was busy
system.cpu.fuPool.fu_ticks_busy::IntALU(2)    216397600                       # Total ticks fu was busy
system.cpu.fuPool.fu_ticks_busy::IntALU(3)    216397600                       # Total ticks fu was busy
system.cpu.fuPool.fu_ticks_busy::IntALU(4)    216397600                       # Total ticks fu was busy
system.cpu.fuPool.fu_ticks_busy::IntALU(5)    216397600                       # Total ticks fu was busy
system.cpu.fuPool.fu_ticks_busy::IntMultDiv(0)      8737600                       # Total ticks fu was busy
system.cpu.fuPool.fu_ticks_busy::IntMultDiv(1)      8737200                       # Total ticks fu was busy
system.cpu.fuPool.fu_ticks_busy::FP_ALU(0)       553200                       # Total ticks fu was busy
system.cpu.fuPool.fu_ticks_busy::FP_ALU(1)       553200                       # Total ticks fu was busy
system.cpu.fuPool.fu_ticks_busy::FP_ALU(2)       552800                       # Total ticks fu was busy
system.cpu.fuPool.fu_ticks_busy::FP_ALU(3)       552800                       # Total ticks fu was busy
system.cpu.fuPool.fu_ticks_busy::FP_MultDiv(0)            0                       # Total ticks fu was busy
system.cpu.fuPool.fu_ticks_busy::FP_MultDiv(1)            0                       # Total ticks fu was busy
system.cpu.fuPool.fu_ticks_busy::SIMD_Unit(0)      4436000                       # Total ticks fu was busy
system.cpu.fuPool.fu_ticks_busy::SIMD_Unit(1)      4327600                       # Total ticks fu was busy
system.cpu.fuPool.fu_ticks_busy::SIMD_Unit(2)      4416400                       # Total ticks fu was busy
system.cpu.fuPool.fu_ticks_busy::SIMD_Unit(3)      4531200                       # Total ticks fu was busy
system.cpu.fuPool.fu_ticks_busy::PredALU(0)            0                       # Total ticks fu was busy
system.cpu.fuPool.fu_ticks_busy::RdWrPort(0)     77833200                       # Total ticks fu was busy
system.cpu.fuPool.fu_ticks_busy::RdWrPort(1)     77752000                       # Total ticks fu was busy
system.cpu.fuPool.fu_ticks_busy::RdWrPort(2)     77813600                       # Total ticks fu was busy
system.cpu.fuPool.fu_ticks_busy::RdWrPort(3)     77826000                       # Total ticks fu was busy
system.cpu.fuPool.fu_ticks_busy::IprPort(0)            0                       # Total ticks fu was busy
system.cpu.fuPool.fu_ticks_busy::total     1647008800                       # Total ticks fu was busy
system.cpu.icache.prefetcher.num_hwpf_issued            0                       # number of hwpf issued
system.cpu.icache.prefetcher.pfBufferHit            0                       # number of redundant prefetches already in prefetch queue
system.cpu.icache.prefetcher.pfIdentified            0                       # number of prefetch candidates identified
system.cpu.icache.prefetcher.pfInCache              0                       # number of redundant prefetches already in cache/mshr dropped
system.cpu.icache.prefetcher.pfRemovedFull            0                       # number of prefetches dropped due to prefetch queue size
system.cpu.icache.prefetcher.pfSpanPage             0                       # number of prefetches that crossed the page
system.cpu.idleCycles                          149675                       # Total number of cycles that the CPU has spent unscheduled due to idling
system.cpu.iew.branchMispredicts                29133                       # Number of branch mispredicts detected at execute
system.cpu.iew.exec_branches                   373601                       # Number of branches executed
system.cpu.iew.exec_nop                             0                       # number of nop insts executed
system.cpu.iew.exec_rate                     1.511390                       # Inst execution rate
system.cpu.iew.exec_refs                       764649                       # number of memory reference insts executed
system.cpu.iew.exec_stores                     189759                       # Number of stores executed
system.cpu.iew.exec_swp                             0                       # number of swp insts executed
system.cpu.iew.iewBlockCycles                  692346                       # Number of cycles IEW is blocking
system.cpu.iew.iewDispLoadInsts                605775                       # Number of dispatched load instructions
system.cpu.iew.iewDispNonSpecInsts                931                       # Number of dispatched non-speculative instructions
system.cpu.iew.iewDispSquashedInsts               503                       # Number of squashed instructions skipped by dispatch
system.cpu.iew.iewDispStoreInsts               200239                       # Number of dispatched store instructions
system.cpu.iew.iewDispatchedInsts             4464968                       # Number of instructions dispatched to IQ
system.cpu.iew.iewExecLoadInsts                574890                       # Number of load instructions executed
system.cpu.iew.iewExecSquashedInsts             35228                       # Number of squashed instructions skipped in execute
system.cpu.iew.iewExecutedInsts               4108621                       # Number of executed instructions
system.cpu.iew.iewIQFullEvents                   3349                       # Number of times the IQ has become full, causing a stall
system.cpu.iew.iewIdleCycles                        0                       # Number of cycles IEW is idle
system.cpu.iew.iewLSQFullEvents                  8108                       # Number of times the LSQ has become full, causing a stall
system.cpu.iew.iewSquashCycles                  24739                       # Number of cycles IEW is squashing
system.cpu.iew.iewUnblockCycles                 14358                       # Number of cycles IEW is unblocking
system.cpu.iew.lsq.thread0.blockedLoads             0                       # Number of blocked loads due to partial load-store forwarding
system.cpu.iew.lsq.thread0.cacheBlocked           607                       # Number of times an access to memory failed due to the cache being blocked
system.cpu.iew.lsq.thread0.forwLoads            39678                       # Number of loads that had data forwarded from stores
system.cpu.iew.lsq.thread0.ignoredResponses          259                       # Number of memory responses ignored because the instruction is squashed
system.cpu.iew.lsq.thread0.invAddrLoads             0                       # Number of loads ignored due to an invalid address
system.cpu.iew.lsq.thread0.invAddrSwpfs             0                       # Number of software prefetches ignored due to an invalid address
system.cpu.iew.lsq.thread0.memOrderViolation           78                       # Number of memory ordering violations
system.cpu.iew.lsq.thread0.rescheduledLoads            0                       # Number of loads that were rescheduled
system.cpu.iew.lsq.thread0.squashedLoads       117211                       # Number of loads squashed
system.cpu.iew.lsq.thread0.squashedStores        29862                       # Number of stores squashed
system.cpu.iew.memOrderViolationEvents             78                       # Number of memory order violations
system.cpu.iew.predictedNotTakenIncorrect        20687                       # Number of branches that were predicted not taken incorrectly
system.cpu.iew.predictedTakenIncorrect           8446                       # Number of branches that were predicted taken incorrectly
system.cpu.iew.wb_consumers                   5767637                       # num instructions consuming a value
system.cpu.iew.wb_count                       4085504                       # cumulative count of insts written-back
system.cpu.iew.wb_fanout                     0.566479                       # average fanout of values written-back
system.cpu.iew.wb_producers                   3267248                       # num instructions producing a value
system.cpu.iew.wb_rate                       1.502887                       # insts written-back per cycle
system.cpu.iew.wb_sent                        4092896                       # cumulative count of insts sent to commit
system.cpu.int_regfile_reads                  6367722                       # number of integer regfile reads
system.cpu.int_regfile_writes                 3534756                       # number of integer regfile writes
system.cpu.ipc                               0.756596                       # IPC: Instructions Per Cycle
system.cpu.ipc_total                         0.756596                       # IPC: Total IPC of All Threads
system.cpu.iq.FU_type_0::No_OpClass             26327      0.64%      0.64% # Type of FU issued
system.cpu.iq.FU_type_0::IntAlu               3245966     78.33%     78.97% # Type of FU issued
system.cpu.iq.FU_type_0::IntMult                 1829      0.04%     79.01% # Type of FU issued
system.cpu.iq.FU_type_0::IntDiv                 41858      1.01%     80.02% # Type of FU issued
system.cpu.iq.FU_type_0::FloatAdd                4306      0.10%     80.13% # Type of FU issued
system.cpu.iq.FU_type_0::FloatCmp                   0      0.00%     80.13% # Type of FU issued
system.cpu.iq.FU_type_0::FloatCvt                1224      0.03%     80.16% # Type of FU issued
system.cpu.iq.FU_type_0::FloatMult                  0      0.00%     80.16% # Type of FU issued
system.cpu.iq.FU_type_0::FloatMultAcc               0      0.00%     80.16% # Type of FU issued
system.cpu.iq.FU_type_0::FloatDiv                   0      0.00%     80.16% # Type of FU issued
system.cpu.iq.FU_type_0::FloatMisc                  0      0.00%     80.16% # Type of FU issued
system.cpu.iq.FU_type_0::FloatSqrt                  0      0.00%     80.16% # Type of FU issued
system.cpu.iq.FU_type_0::SimdAdd                 6796      0.16%     80.32% # Type of FU issued
system.cpu.iq.FU_type_0::SimdAddAcc                 0      0.00%     80.32% # Type of FU issued
system.cpu.iq.FU_type_0::SimdAlu                14707      0.35%     80.67% # Type of FU issued
system.cpu.iq.FU_type_0::SimdCmp                    0      0.00%     80.67% # Type of FU issued
system.cpu.iq.FU_type_0::SimdCvt                13720      0.33%     81.01% # Type of FU issued
system.cpu.iq.FU_type_0::SimdMisc                7030      0.17%     81.17% # Type of FU issued
system.cpu.iq.FU_type_0::SimdMult                   0      0.00%     81.17% # Type of FU issued
system.cpu.iq.FU_type_0::SimdMultAcc                0      0.00%     81.17% # Type of FU issued
system.cpu.iq.FU_type_0::SimdShift               2025      0.05%     81.22% # Type of FU issued
system.cpu.iq.FU_type_0::SimdShiftAcc               0      0.00%     81.22% # Type of FU issued
system.cpu.iq.FU_type_0::SimdDiv                    0      0.00%     81.22% # Type of FU issued
system.cpu.iq.FU_type_0::SimdSqrt                   0      0.00%     81.22% # Type of FU issued
system.cpu.iq.FU_type_0::SimdFloatAdd               0      0.00%     81.22% # Type of FU issued
system.cpu.iq.FU_type_0::SimdFloatAlu               0      0.00%     81.22% # Type of FU issued
system.cpu.iq.FU_type_0::SimdFloatCmp               0      0.00%     81.22% # Type of FU issued
system.cpu.iq.FU_type_0::SimdFloatCvt               0      0.00%     81.22% # Type of FU issued
system.cpu.iq.FU_type_0::SimdFloatDiv               0      0.00%     81.22% # Type of FU issued
system.cpu.iq.FU_type_0::SimdFloatMisc              0      0.00%     81.22% # Type of FU issued
system.cpu.iq.FU_type_0::SimdFloatMult              0      0.00%     81.22% # Type of FU issued
system.cpu.iq.FU_type_0::SimdFloatMultAcc            0      0.00%     81.22% # Type of FU issued
system.cpu.iq.FU_type_0::SimdFloatSqrt              0      0.00%     81.22% # Type of FU issued
system.cpu.iq.FU_type_0::SimdReduceAdd              0      0.00%     81.22% # Type of FU issued
system.cpu.iq.FU_type_0::SimdReduceAlu              0      0.00%     81.22% # Type of FU issued
system.cpu.iq.FU_type_0::SimdReduceCmp              0      0.00%     81.22% # Type of FU issued
system.cpu.iq.FU_type_0::SimdFloatReduceAdd            0      0.00%     81.22% # Type of FU issued
system.cpu.iq.FU_type_0::SimdFloatReduceCmp            0      0.00%     81.22% # Type of FU issued
system.cpu.iq.FU_type_0::SimdAes                    0      0.00%     81.22% # Type of FU issued
system.cpu.iq.FU_type_0::SimdAesMix                 0      0.00%     81.22% # Type of FU issued
system.cpu.iq.FU_type_0::SimdSha1Hash               0      0.00%     81.22% # Type of FU issued
system.cpu.iq.FU_type_0::SimdSha1Hash2              0      0.00%     81.22% # Type of FU issued
system.cpu.iq.FU_type_0::SimdSha256Hash             0      0.00%     81.22% # Type of FU issued
system.cpu.iq.FU_type_0::SimdSha256Hash2            0      0.00%     81.22% # Type of FU issued
system.cpu.iq.FU_type_0::SimdShaSigma2              0      0.00%     81.22% # Type of FU issued
system.cpu.iq.FU_type_0::SimdShaSigma3              0      0.00%     81.22% # Type of FU issued
system.cpu.iq.FU_type_0::SimdPredAlu                0      0.00%     81.22% # Type of FU issued
system.cpu.iq.FU_type_0::MemRead               560789     13.53%     94.76% # Type of FU issued
system.cpu.iq.FU_type_0::MemWrite              179194      4.32%     99.08% # Type of FU issued
system.cpu.iq.FU_type_0::FloatMemRead           24778      0.60%     99.68% # Type of FU issued
system.cpu.iq.FU_type_0::FloatMemWrite          13303      0.32%    100.00% # Type of FU issued
system.cpu.iq.FU_type_0::IprAccess                  0      0.00%    100.00% # Type of FU issued
system.cpu.iq.FU_type_0::InstPrefetch               0      0.00%    100.00% # Type of FU issued
system.cpu.iq.FU_type_0::total                4143852                       # Type of FU issued
system.cpu.iq.fp_alu_accesses                   88869                       # Number of floating point alu accesses
system.cpu.iq.fp_inst_queue_reads              179047                       # Number of floating instruction queue reads
system.cpu.iq.fp_inst_queue_wakeup_accesses        85420                       # Number of floating instruction queue wakeup accesses
system.cpu.iq.fp_inst_queue_writes             127978                       # Number of floating instruction queue writes
system.cpu.iq.fu_busy_cnt                           0                       # FU busy when requested
system.cpu.iq.fu_busy_rate                          0                       # FU busy rate (busy events/executed inst)
system.cpu.iq.fu_full::No_OpClass                   0                       # attempts to use FU when none available
system.cpu.iq.fu_full::IntAlu                       0                       # attempts to use FU when none available
system.cpu.iq.fu_full::IntMult                      0                       # attempts to use FU when none available
system.cpu.iq.fu_full::IntDiv                       0                       # attempts to use FU when none available
system.cpu.iq.fu_full::FloatAdd                     0                       # attempts to use FU when none available
system.cpu.iq.fu_full::FloatCmp                     0                       # attempts to use FU when none available
system.cpu.iq.fu_full::FloatCvt                     0                       # attempts to use FU when none available
system.cpu.iq.fu_full::FloatMult                    0                       # attempts to use FU when none available
system.cpu.iq.fu_full::FloatMultAcc                 0                       # attempts to use FU when none available
system.cpu.iq.fu_full::FloatDiv                     0                       # attempts to use FU when none available
system.cpu.iq.fu_full::FloatMisc                    0                       # attempts to use FU when none available
system.cpu.iq.fu_full::FloatSqrt                    0                       # attempts to use FU when none available
system.cpu.iq.fu_full::SimdAdd                      0                       # attempts to use FU when none available
system.cpu.iq.fu_full::SimdAddAcc                   0                       # attempts to use FU when none available
system.cpu.iq.fu_full::SimdAlu                      0                       # attempts to use FU when none available
system.cpu.iq.fu_full::SimdCmp                      0                       # attempts to use FU when none available
system.cpu.iq.fu_full::SimdCvt                      0                       # attempts to use FU when none available
system.cpu.iq.fu_full::SimdMisc                     0                       # attempts to use FU when none available
system.cpu.iq.fu_full::SimdMult                     0                       # attempts to use FU when none available
system.cpu.iq.fu_full::SimdMultAcc                  0                       # attempts to use FU when none available
system.cpu.iq.fu_full::SimdShift                    0                       # attempts to use FU when none available
system.cpu.iq.fu_full::SimdShiftAcc                 0                       # attempts to use FU when none available
system.cpu.iq.fu_full::SimdDiv                      0                       # attempts to use FU when none available
system.cpu.iq.fu_full::SimdSqrt                     0                       # attempts to use FU when none available
system.cpu.iq.fu_full::SimdFloatAdd                 0                       # attempts to use FU when none available
system.cpu.iq.fu_full::SimdFloatAlu                 0                       # attempts to use FU when none available
system.cpu.iq.fu_full::SimdFloatCmp                 0                       # attempts to use FU when none available
system.cpu.iq.fu_full::SimdFloatCvt                 0                       # attempts to use FU when none available
system.cpu.iq.fu_full::SimdFloatDiv                 0                       # attempts to use FU when none available
system.cpu.iq.fu_full::SimdFloatMisc                0                       # attempts to use FU when none available
system.cpu.iq.fu_full::SimdFloatMult                0                       # attempts to use FU when none available
system.cpu.iq.fu_full::SimdFloatMultAcc             0                       # attempts to use FU when none available
system.cpu.iq.fu_full::SimdFloatSqrt                0                       # attempts to use FU when none available
system.cpu.iq.fu_full::SimdReduceAdd                0                       # attempts to use FU when none available
system.cpu.iq.fu_full::SimdReduceAlu                0                       # attempts to use FU when none available
system.cpu.iq.fu_full::SimdReduceCmp                0                       # attempts to use FU when none available
system.cpu.iq.fu_full::SimdFloatReduceAdd            0                       # attempts to use FU when none available
system.cpu.iq.fu_full::SimdFloatReduceCmp            0                       # attempts to use FU when none available
system.cpu.iq.fu_full::SimdAes                      0                       # attempts to use FU when none available
system.cpu.iq.fu_full::SimdAesMix                   0                       # attempts to use FU when none available
system.cpu.iq.fu_full::SimdSha1Hash                 0                       # attempts to use FU when none available
system.cpu.iq.fu_full::SimdSha1Hash2                0                       # attempts to use FU when none available
system.cpu.iq.fu_full::SimdSha256Hash               0                       # attempts to use FU when none available
system.cpu.iq.fu_full::SimdSha256Hash2              0                       # attempts to use FU when none available
system.cpu.iq.fu_full::SimdShaSigma2                0                       # attempts to use FU when none available
system.cpu.iq.fu_full::SimdShaSigma3                0                       # attempts to use FU when none available
system.cpu.iq.fu_full::SimdPredAlu                  0                       # attempts to use FU when none available
system.cpu.iq.fu_full::MemRead                      0                       # attempts to use FU when none available
system.cpu.iq.fu_full::MemWrite                     0                       # attempts to use FU when none available
system.cpu.iq.fu_full::FloatMemRead                 0                       # attempts to use FU when none available
system.cpu.iq.fu_full::FloatMemWrite                0                       # attempts to use FU when none available
system.cpu.iq.fu_full::IprAccess                    0                       # attempts to use FU when none available
system.cpu.iq.fu_full::InstPrefetch                 0                       # attempts to use FU when none available
system.cpu.iq.int_alu_accesses                4028656                       # Number of integer alu accesses
system.cpu.iq.int_inst_queue_reads           10695971                       # Number of integer instruction queue reads
system.cpu.iq.int_inst_queue_wakeup_accesses      4000084                       # Number of integer instruction queue wakeup accesses
system.cpu.iq.int_inst_queue_writes           5229186                       # Number of integer instruction queue writes
system.cpu.iq.iqInstsAdded                    4463840                       # Number of instructions added to the IQ (excludes non-spec)
system.cpu.iq.iqInstsIssued                   4143852                       # Number of instructions issued
system.cpu.iq.iqNonSpecInstsAdded                1128                       # Number of non-speculative instructions added to the IQ
system.cpu.iq.iqSquashedInstsExamined          892119                       # Number of squashed instructions iterated over during squash; mainly for profiling
system.cpu.iq.iqSquashedInstsIssued             18554                       # Number of squashed instructions issued
system.cpu.iq.iqSquashedNonSpecRemoved            396                       # Number of squashed non-spec instructions that were removed
system.cpu.iq.iqSquashedOperandsExamined      1334856                       # Number of squashed operands that are examined and possibly removed from graph
system.cpu.iq.issued_per_cycle::samples       2568763                       # Number of insts issued each cycle
system.cpu.iq.issued_per_cycle::mean         1.613170                       # Number of insts issued each cycle
system.cpu.iq.issued_per_cycle::stdev        1.669190                       # Number of insts issued each cycle
system.cpu.iq.issued_per_cycle::underflows            0      0.00%      0.00% # Number of insts issued each cycle
system.cpu.iq.issued_per_cycle::0             1168361     45.48%     45.48% # Number of insts issued each cycle
system.cpu.iq.issued_per_cycle::1              173882      6.77%     52.25% # Number of insts issued each cycle
system.cpu.iq.issued_per_cycle::2              298188     11.61%     63.86% # Number of insts issued each cycle
system.cpu.iq.issued_per_cycle::3              339734     13.23%     77.09% # Number of insts issued each cycle
system.cpu.iq.issued_per_cycle::4              588598     22.91%    100.00% # Number of insts issued each cycle
system.cpu.iq.issued_per_cycle::overflows            0      0.00%    100.00% # Number of insts issued each cycle
system.cpu.iq.issued_per_cycle::min_value            0                       # Number of insts issued each cycle
system.cpu.iq.issued_per_cycle::max_value            4                       # Number of insts issued each cycle
system.cpu.iq.issued_per_cycle::total         2568763                       # Number of insts issued each cycle
system.cpu.iq.rate                           1.524350                       # Inst issue rate
system.cpu.iq.vec_alu_accesses                      0                       # Number of vector alu accesses
system.cpu.iq.vec_inst_queue_reads                  0                       # Number of vector instruction queue reads
system.cpu.iq.vec_inst_queue_wakeup_accesses            0                       # Number of vector instruction queue wakeup accesses
system.cpu.iq.vec_inst_queue_writes                 0                       # Number of vector instruction queue writes
system.cpu.itb.rdAccesses                           0                       # TLB accesses on read requests
system.cpu.itb.rdMisses                             0                       # TLB misses on read requests
system.cpu.itb.wrAccesses                      242107                       # TLB accesses on write requests
system.cpu.itb.wrMisses                           312                       # TLB misses on write requests
system.cpu.memDep0.conflictingLoads             12785                       # Number of conflicting loads.
system.cpu.memDep0.conflictingStores             4179                       # Number of conflicting stores.
system.cpu.memDep0.insertedLoads               605775                       # Number of loads inserted to the mem dependence unit.
system.cpu.memDep0.insertedStores              200239                       # Number of stores inserted to the mem dependence unit.
system.cpu.misc_regfile_reads                 1548587                       # number of misc regfile reads
system.cpu.misc_regfile_writes                    675                       # number of misc regfile writes
system.cpu.numCycles                          2718438                       # number of cpu cycles simulated
system.cpu.numWorkItemsCompleted                    0                       # number of work items this cpu completed
system.cpu.numWorkItemsStarted                      0                       # number of work items this cpu started
system.cpu.process.numSyscalls                     56                       # Number of system calls
system.cpu.rename.BlockCycles                  841308                       # Number of cycles rename is blocking
system.cpu.rename.CommittedMaps               4904454                       # Number of HB maps that are committed
system.cpu.rename.FullRegisterEvents              274                       # Number of times there has been no free registers
system.cpu.rename.IQFullEvents                  47507                       # Number of times rename has blocked due to IQ full
system.cpu.rename.IdleCycles                   342618                       # Number of cycles rename is idle
system.cpu.rename.LQFullEvents                  14446                       # Number of times rename has blocked due to LQ full
system.cpu.rename.ROBFullEvents                  4887                       # Number of times rename has blocked due to ROB full
system.cpu.rename.RenameLookups              12046068                       # Number of register rename lookups that rename has made
system.cpu.rename.RenamedInsts                4609114                       # Number of instructions processed by rename
system.cpu.rename.RenamedOperands             6311715                       # Number of destination operands rename has renamed
system.cpu.rename.RunCycles                   1166553                       # Number of cycles rename is running
system.cpu.rename.SQFullEvents                  74897                       # Number of times rename has blocked due to SQ full
system.cpu.rename.SquashCycles                  24739                       # Number of cycles rename is squashing
system.cpu.rename.UnblockCycles                174026                       # Number of cycles rename is unblocking
system.cpu.rename.UndoneMaps                  1407238                       # Number of HB maps that are undone due to squashing
system.cpu.rename.fp_rename_lookups            151859                       # Number of floating rename lookups
system.cpu.rename.int_rename_lookups          7326253                       # Number of integer rename lookups
system.cpu.rename.serializeStallCycles          19519                       # count of cycles rename stalled for serializing inst
system.cpu.rename.serializingInsts                865                       # count of serializing insts renamed
system.cpu.rename.skidInsts                    208182                       # count of insts added to the skid buffer
system.cpu.rename.tempSerializingInsts            910                       # count of temporary serializing insts renamed
system.cpu.rob.rob_reads                      6197058                       # The number of ROB reads
system.cpu.rob.rob_writes                     9174675                       # The number of ROB writes
system.cpu.timesIdled                            1475                       # Number of times that the entire CPU went into an idle state and unscheduled itself
system.l2bus.snoop_filter.hit_multi_requests            9                       # Number of requests hitting in the snoop filter with multiple (>1) holders of the requested data.
system.l2bus.snoop_filter.hit_multi_snoops            0                       # Number of snoops hitting in the snoop filter with multiple (>1) holders of the requested data.
system.l2bus.snoop_filter.hit_single_requests        18245                       # Number of requests hitting in the snoop filter with a single holder of the requested data.
system.l2bus.snoop_filter.hit_single_snoops          415                       # Number of snoops hitting in the snoop filter with a single holder of the requested data.
system.l2bus.snoop_filter.tot_requests          37770                       # Total number of requests made to the snoop filter.
system.l2bus.snoop_filter.tot_snoops              415                       # Total number of snoops made to the snoop filter.
system.l2cache.prefetcher.num_hwpf_issued          696                       # number of hwpf issued
system.l2cache.prefetcher.pfBufferHit               0                       # number of redundant prefetches already in prefetch queue
system.l2cache.prefetcher.pfIdentified            696                       # number of prefetch candidates identified
system.l2cache.prefetcher.pfInCache                 0                       # number of redundant prefetches already in cache/mshr dropped
system.l2cache.prefetcher.pfRemovedFull             0                       # number of prefetches dropped due to prefetch queue size
system.l2cache.prefetcher.pfSpanPage              104                       # number of prefetches that crossed the page
system.membus.snoop_filter.hit_multi_requests            0                       # Number of requests hitting in the snoop filter with multiple (>1) holders of the requested data.
system.membus.snoop_filter.hit_multi_snoops            0                       # Number of snoops hitting in the snoop filter with multiple (>1) holders of the requested data.
system.membus.snoop_filter.hit_single_requests         9266                       # Number of requests hitting in the snoop filter with a single holder of the requested data.
system.membus.snoop_filter.hit_single_snoops            0                       # Number of snoops hitting in the snoop filter with a single holder of the requested data.
system.membus.snoop_filter.tot_requests         22652                       # Total number of requests made to the snoop filter.
system.membus.snoop_filter.tot_snoops               0                       # Total number of snoops made to the snoop filter.
system.membus.pwrStateResidencyTicks::UNDEFINED   1087374800                       # Cumulative time (in ticks) in various power states
system.membus.trans_dist::ReadResp              12036                       # Transaction distribution
system.membus.trans_dist::WritebackDirty         1332                       # Transaction distribution
system.membus.trans_dist::CleanEvict             7934                       # Transaction distribution
system.membus.trans_dist::ReadExReq              1350                       # Transaction distribution
system.membus.trans_dist::ReadExResp             1350                       # Transaction distribution
system.membus.trans_dist::ReadSharedReq         12036                       # Transaction distribution
system.membus.pkt_count_system.l2cache.mem_side::system.mem_ctrl.port        36038                       # Packet count per connected master and slave (bytes)
system.membus.pkt_count_system.l2cache.mem_side::total        36038                       # Packet count per connected master and slave (bytes)
system.membus.pkt_count::total                  36038                       # Packet count per connected master and slave (bytes)
system.membus.pkt_size_system.l2cache.mem_side::system.mem_ctrl.port       941952                       # Cumulative packet size per connected master and slave (bytes)
system.membus.pkt_size_system.l2cache.mem_side::total       941952                       # Cumulative packet size per connected master and slave (bytes)
system.membus.pkt_size::total                  941952                       # Cumulative packet size per connected master and slave (bytes)
system.membus.snoops                                0                       # Total snoops (count)
system.membus.snoopTraffic                          0                       # Total snoop traffic (bytes)
system.membus.snoop_fanout::samples             13386                       # Request fanout histogram
system.membus.snoop_fanout::mean                    0                       # Request fanout histogram
system.membus.snoop_fanout::stdev                   0                       # Request fanout histogram
system.membus.snoop_fanout::underflows              0      0.00%      0.00% # Request fanout histogram
system.membus.snoop_fanout::0                   13386    100.00%    100.00% # Request fanout histogram
system.membus.snoop_fanout::1                       0      0.00%    100.00% # Request fanout histogram
system.membus.snoop_fanout::overflows               0      0.00%    100.00% # Request fanout histogram
system.membus.snoop_fanout::min_value               0                       # Request fanout histogram
system.membus.snoop_fanout::max_value               0                       # Request fanout histogram
system.membus.snoop_fanout::total               13386                       # Request fanout histogram
system.membus.reqLayer2.occupancy            11220046                       # Layer occupancy (ticks)
system.membus.reqLayer2.utilization               1.0                       # Layer utilization (%)
system.membus.respLayer0.occupancy           29053254                       # Layer occupancy (ticks)
system.membus.respLayer0.utilization              2.7                       # Layer utilization (%)
system.l2bus.pwrStateResidencyTicks::UNDEFINED   1087374800                       # Cumulative time (in ticks) in various power states
system.l2bus.trans_dist::ReadResp               17446                       # Transaction distribution
system.l2bus.trans_dist::WritebackDirty          4099                       # Transaction distribution
system.l2bus.trans_dist::CleanEvict             23493                       # Transaction distribution
system.l2bus.trans_dist::HardPFReq                960                       # Transaction distribution
system.l2bus.trans_dist::ReadExReq               2079                       # Transaction distribution
system.l2bus.trans_dist::ReadExResp              2079                       # Transaction distribution
system.l2bus.trans_dist::ReadSharedReq          17446                       # Transaction distribution
system.l2bus.pkt_count_system.cpu.icache.mem_side::system.l2cache.cpu_side         7557                       # Packet count per connected master and slave (bytes)
system.l2bus.pkt_count_system.cpu.dcache.mem_side::system.l2cache.cpu_side        49736                       # Packet count per connected master and slave (bytes)
system.l2bus.pkt_count::total                   57293                       # Packet count per connected master and slave (bytes)
system.l2bus.pkt_size_system.cpu.icache.mem_side::system.l2cache.cpu_side       166592                       # Cumulative packet size per connected master and slave (bytes)
system.l2bus.pkt_size_system.cpu.dcache.mem_side::system.l2cache.cpu_side      1259968                       # Cumulative packet size per connected master and slave (bytes)
system.l2bus.pkt_size::total                  1426560                       # Cumulative packet size per connected master and slave (bytes)
system.l2bus.snoops                             10309                       # Total snoops (count)
system.l2bus.snoopTraffic                       85376                       # Total snoop traffic (bytes)
system.l2bus.snoop_fanout::samples              29832                       # Request fanout histogram
system.l2bus.snoop_fanout::mean              0.014213                       # Request fanout histogram
system.l2bus.snoop_fanout::stdev             0.118370                       # Request fanout histogram
system.l2bus.snoop_fanout::underflows               0      0.00%      0.00% # Request fanout histogram
system.l2bus.snoop_fanout::0                    29408     98.58%     98.58% # Request fanout histogram
system.l2bus.snoop_fanout::1                      424      1.42%    100.00% # Request fanout histogram
system.l2bus.snoop_fanout::2                        0      0.00%    100.00% # Request fanout histogram
system.l2bus.snoop_fanout::overflows                0      0.00%    100.00% # Request fanout histogram
system.l2bus.snoop_fanout::min_value                0                       # Request fanout histogram
system.l2bus.snoop_fanout::max_value                1                       # Request fanout histogram
system.l2bus.snoop_fanout::total                29832                       # Request fanout histogram
system.l2bus.respLayer1.occupancy            20304399                       # Layer occupancy (ticks)
system.l2bus.respLayer1.utilization               1.9                       # Layer utilization (%)
system.l2bus.reqLayer0.occupancy             18728777                       # Layer occupancy (ticks)
system.l2bus.reqLayer0.utilization                1.7                       # Layer utilization (%)
system.l2bus.respLayer0.occupancy             3126000                       # Layer occupancy (ticks)
system.l2bus.respLayer0.utilization               0.3                       # Layer utilization (%)
system.clk_domain.clock                           400                       # Clock period in ticks
system.clk_domain.voltage_domain.voltage            1                       # Voltage in Volts
system.cpu.pwrStateResidencyTicks::ON      1087374800                       # Cumulative time (in ticks) in various power states
system.cpu.icache.pwrStateResidencyTicks::UNDEFINED   1087374800                       # Cumulative time (in ticks) in various power states
system.cpu.icache.demand_hits::.cpu.inst       238757                       # number of demand (read+write) hits
system.cpu.icache.demand_hits::total           238757                       # number of demand (read+write) hits
system.cpu.icache.overall_hits::.cpu.inst       238757                       # number of overall hits
system.cpu.icache.overall_hits::total          238757                       # number of overall hits
system.cpu.icache.demand_misses::.cpu.inst         3274                       # number of demand (read+write) misses
system.cpu.icache.demand_misses::total           3274                       # number of demand (read+write) misses
system.cpu.icache.overall_misses::.cpu.inst         3274                       # number of overall misses
system.cpu.icache.overall_misses::total          3274                       # number of overall misses
system.cpu.icache.demand_miss_latency::.cpu.inst    165784800                       # number of demand (read+write) miss cycles
system.cpu.icache.demand_miss_latency::total    165784800                       # number of demand (read+write) miss cycles
system.cpu.icache.overall_miss_latency::.cpu.inst    165784800                       # number of overall miss cycles
system.cpu.icache.overall_miss_latency::total    165784800                       # number of overall miss cycles
system.cpu.icache.demand_accesses::.cpu.inst       242031                       # number of demand (read+write) accesses
system.cpu.icache.demand_accesses::total       242031                       # number of demand (read+write) accesses
system.cpu.icache.overall_accesses::.cpu.inst       242031                       # number of overall (read+write) accesses
system.cpu.icache.overall_accesses::total       242031                       # number of overall (read+write) accesses
system.cpu.icache.demand_miss_rate::.cpu.inst     0.013527                       # miss rate for demand accesses
system.cpu.icache.demand_miss_rate::total     0.013527                       # miss rate for demand accesses
system.cpu.icache.overall_miss_rate::.cpu.inst     0.013527                       # miss rate for overall accesses
system.cpu.icache.overall_miss_rate::total     0.013527                       # miss rate for overall accesses
system.cpu.icache.demand_avg_miss_latency::.cpu.inst 50636.774588                       # average overall miss latency
system.cpu.icache.demand_avg_miss_latency::total 50636.774588                       # average overall miss latency
system.cpu.icache.overall_avg_miss_latency::.cpu.inst 50636.774588                       # average overall miss latency
system.cpu.icache.overall_avg_miss_latency::total 50636.774588                       # average overall miss latency
system.cpu.icache.blocked_cycles::no_mshrs           39                       # number of cycles access was blocked
system.cpu.icache.blocked_cycles::no_targets            0                       # number of cycles access was blocked
system.cpu.icache.blocked::no_mshrs                 2                       # number of cycles access was blocked
system.cpu.icache.blocked::no_targets               0                       # number of cycles access was blocked
system.cpu.icache.avg_blocked_cycles::no_mshrs    19.500000                       # average number of cycles each access was blocked
system.cpu.icache.avg_blocked_cycles::no_targets          nan                       # average number of cycles each access was blocked
system.cpu.icache.demand_mshr_hits::.cpu.inst          669                       # number of demand (read+write) MSHR hits
system.cpu.icache.demand_mshr_hits::total          669                       # number of demand (read+write) MSHR hits
system.cpu.icache.overall_mshr_hits::.cpu.inst          669                       # number of overall MSHR hits
system.cpu.icache.overall_mshr_hits::total          669                       # number of overall MSHR hits
system.cpu.icache.demand_mshr_misses::.cpu.inst         2605                       # number of demand (read+write) MSHR misses
system.cpu.icache.demand_mshr_misses::total         2605                       # number of demand (read+write) MSHR misses
system.cpu.icache.overall_mshr_misses::.cpu.inst         2605                       # number of overall MSHR misses
system.cpu.icache.overall_mshr_misses::total         2605                       # number of overall MSHR misses
system.cpu.icache.demand_mshr_miss_latency::.cpu.inst    132544800                       # number of demand (read+write) MSHR miss cycles
system.cpu.icache.demand_mshr_miss_latency::total    132544800                       # number of demand (read+write) MSHR miss cycles
system.cpu.icache.overall_mshr_miss_latency::.cpu.inst    132544800                       # number of overall MSHR miss cycles
system.cpu.icache.overall_mshr_miss_latency::total    132544800                       # number of overall MSHR miss cycles
system.cpu.icache.demand_mshr_miss_rate::.cpu.inst     0.010763                       # mshr miss rate for demand accesses
system.cpu.icache.demand_mshr_miss_rate::total     0.010763                       # mshr miss rate for demand accesses
system.cpu.icache.overall_mshr_miss_rate::.cpu.inst     0.010763                       # mshr miss rate for overall accesses
system.cpu.icache.overall_mshr_miss_rate::total     0.010763                       # mshr miss rate for overall accesses
system.cpu.icache.demand_avg_mshr_miss_latency::.cpu.inst 50880.921305                       # average overall mshr miss latency
system.cpu.icache.demand_avg_mshr_miss_latency::total 50880.921305                       # average overall mshr miss latency
system.cpu.icache.overall_avg_mshr_miss_latency::.cpu.inst 50880.921305                       # average overall mshr miss latency
system.cpu.icache.overall_avg_mshr_miss_latency::total 50880.921305                       # average overall mshr miss latency
system.cpu.icache.replacements                   2349                       # number of replacements
system.cpu.icache.ReadReq_hits::.cpu.inst       238757                       # number of ReadReq hits
system.cpu.icache.ReadReq_hits::total          238757                       # number of ReadReq hits
system.cpu.icache.ReadReq_misses::.cpu.inst         3274                       # number of ReadReq misses
system.cpu.icache.ReadReq_misses::total          3274                       # number of ReadReq misses
system.cpu.icache.ReadReq_miss_latency::.cpu.inst    165784800                       # number of ReadReq miss cycles
system.cpu.icache.ReadReq_miss_latency::total    165784800                       # number of ReadReq miss cycles
system.cpu.icache.ReadReq_accesses::.cpu.inst       242031                       # number of ReadReq accesses(hits+misses)
system.cpu.icache.ReadReq_accesses::total       242031                       # number of ReadReq accesses(hits+misses)
system.cpu.icache.ReadReq_miss_rate::.cpu.inst     0.013527                       # miss rate for ReadReq accesses
system.cpu.icache.ReadReq_miss_rate::total     0.013527                       # miss rate for ReadReq accesses
system.cpu.icache.ReadReq_avg_miss_latency::.cpu.inst 50636.774588                       # average ReadReq miss latency
system.cpu.icache.ReadReq_avg_miss_latency::total 50636.774588                       # average ReadReq miss latency
system.cpu.icache.ReadReq_mshr_hits::.cpu.inst          669                       # number of ReadReq MSHR hits
system.cpu.icache.ReadReq_mshr_hits::total          669                       # number of ReadReq MSHR hits
system.cpu.icache.ReadReq_mshr_misses::.cpu.inst         2605                       # number of ReadReq MSHR misses
system.cpu.icache.ReadReq_mshr_misses::total         2605                       # number of ReadReq MSHR misses
system.cpu.icache.ReadReq_mshr_miss_latency::.cpu.inst    132544800                       # number of ReadReq MSHR miss cycles
system.cpu.icache.ReadReq_mshr_miss_latency::total    132544800                       # number of ReadReq MSHR miss cycles
system.cpu.icache.ReadReq_mshr_miss_rate::.cpu.inst     0.010763                       # mshr miss rate for ReadReq accesses
system.cpu.icache.ReadReq_mshr_miss_rate::total     0.010763                       # mshr miss rate for ReadReq accesses
system.cpu.icache.ReadReq_avg_mshr_miss_latency::.cpu.inst 50880.921305                       # average ReadReq mshr miss latency
system.cpu.icache.ReadReq_avg_mshr_miss_latency::total 50880.921305                       # average ReadReq mshr miss latency
system.cpu.icache.prefetcher.pwrStateResidencyTicks::UNDEFINED   1087374800                       # Cumulative time (in ticks) in various power states
system.cpu.icache.tags.pwrStateResidencyTicks::UNDEFINED   1087374800                       # Cumulative time (in ticks) in various power states
system.cpu.icache.tags.tagsinuse           253.452190                       # Cycle average of tags in use
system.cpu.icache.tags.total_refs              206098                       # Total number of references to valid blocks.
system.cpu.icache.tags.sampled_refs              2349                       # Sample count of references to valid blocks.
system.cpu.icache.tags.avg_refs             87.738612                       # Average number of references to valid blocks.
system.cpu.icache.tags.warmup_cycle             66400                       # Cycle when the warmup percentage was hit.
system.cpu.icache.tags.occ_blocks::.cpu.inst   253.452190                       # Average occupied blocks per requestor
system.cpu.icache.tags.occ_percent::.cpu.inst     0.990048                       # Average percentage of cache occupancy
system.cpu.icache.tags.occ_percent::total     0.990048                       # Average percentage of cache occupancy
system.cpu.icache.tags.occ_task_id_blocks::1024          256                       # Occupied blocks per task id
system.cpu.icache.tags.age_task_id_blocks_1024::0           76                       # Occupied blocks per task id
system.cpu.icache.tags.age_task_id_blocks_1024::1          155                       # Occupied blocks per task id
system.cpu.icache.tags.age_task_id_blocks_1024::2           23                       # Occupied blocks per task id
system.cpu.icache.tags.age_task_id_blocks_1024::3            2                       # Occupied blocks per task id
system.cpu.icache.tags.occ_task_id_percent::1024            1                       # Percentage of cache occupancy per task id
system.cpu.icache.tags.tag_accesses            486667                       # Number of tag accesses
system.cpu.icache.tags.data_accesses           486667                       # Number of data accesses
system.cpu.dtb.walker.pwrStateResidencyTicks::UNDEFINED   1087374800                       # Cumulative time (in ticks) in various power states
system.cpu.interrupts.clk_domain.clock           6400                       # Clock period in ticks
system.cpu.itb.walker.pwrStateResidencyTicks::UNDEFINED   1087374800                       # Cumulative time (in ticks) in various power states
system.cpu.dcache.pwrStateResidencyTicks::UNDEFINED   1087374800                       # Cumulative time (in ticks) in various power states
system.cpu.dcache.demand_hits::.cpu.data       667383                       # number of demand (read+write) hits
system.cpu.dcache.demand_hits::total           667383                       # number of demand (read+write) hits
system.cpu.dcache.overall_hits::.cpu.data       667383                       # number of overall hits
system.cpu.dcache.overall_hits::total          667383                       # number of overall hits
system.cpu.dcache.demand_misses::.cpu.data        35136                       # number of demand (read+write) misses
system.cpu.dcache.demand_misses::total          35136                       # number of demand (read+write) misses
system.cpu.dcache.overall_misses::.cpu.data        35136                       # number of overall misses
system.cpu.dcache.overall_misses::total         35136                       # number of overall misses
system.cpu.dcache.demand_miss_latency::.cpu.data   1710102400                       # number of demand (read+write) miss cycles
system.cpu.dcache.demand_miss_latency::total   1710102400                       # number of demand (read+write) miss cycles
system.cpu.dcache.overall_miss_latency::.cpu.data   1710102400                       # number of overall miss cycles
system.cpu.dcache.overall_miss_latency::total   1710102400                       # number of overall miss cycles
system.cpu.dcache.demand_accesses::.cpu.data       702519                       # number of demand (read+write) accesses
system.cpu.dcache.demand_accesses::total       702519                       # number of demand (read+write) accesses
system.cpu.dcache.overall_accesses::.cpu.data       702519                       # number of overall (read+write) accesses
system.cpu.dcache.overall_accesses::total       702519                       # number of overall (read+write) accesses
system.cpu.dcache.demand_miss_rate::.cpu.data     0.050014                       # miss rate for demand accesses
system.cpu.dcache.demand_miss_rate::total     0.050014                       # miss rate for demand accesses
system.cpu.dcache.overall_miss_rate::.cpu.data     0.050014                       # miss rate for overall accesses
system.cpu.dcache.overall_miss_rate::total     0.050014                       # miss rate for overall accesses
system.cpu.dcache.demand_avg_miss_latency::.cpu.data 48670.947177                       # average overall miss latency
system.cpu.dcache.demand_avg_miss_latency::total 48670.947177                       # average overall miss latency
system.cpu.dcache.overall_avg_miss_latency::.cpu.data 48670.947177                       # average overall miss latency
system.cpu.dcache.overall_avg_miss_latency::total 48670.947177                       # average overall miss latency
system.cpu.dcache.blocked_cycles::no_mshrs        29744                       # number of cycles access was blocked
system.cpu.dcache.blocked_cycles::no_targets          178                       # number of cycles access was blocked
system.cpu.dcache.blocked::no_mshrs               750                       # number of cycles access was blocked
system.cpu.dcache.blocked::no_targets               3                       # number of cycles access was blocked
system.cpu.dcache.avg_blocked_cycles::no_mshrs    39.658667                       # average number of cycles each access was blocked
system.cpu.dcache.avg_blocked_cycles::no_targets    59.333333                       # average number of cycles each access was blocked
system.cpu.dcache.unused_prefetches              1818                       # number of HardPF blocks evicted w/o reference
system.cpu.dcache.writebacks::.writebacks         2767                       # number of writebacks
system.cpu.dcache.writebacks::total              2767                       # number of writebacks
system.cpu.dcache.demand_mshr_hits::.cpu.data        22501                       # number of demand (read+write) MSHR hits
system.cpu.dcache.demand_mshr_hits::total        22501                       # number of demand (read+write) MSHR hits
system.cpu.dcache.overall_mshr_hits::.cpu.data        22501                       # number of overall MSHR hits
system.cpu.dcache.overall_mshr_hits::total        22501                       # number of overall MSHR hits
system.cpu.dcache.demand_mshr_misses::.cpu.data        12635                       # number of demand (read+write) MSHR misses
system.cpu.dcache.demand_mshr_misses::total        12635                       # number of demand (read+write) MSHR misses
system.cpu.dcache.overall_mshr_misses::.cpu.data        12635                       # number of overall MSHR misses
system.cpu.dcache.overall_mshr_misses::.cpu.dcache.prefetcher         4285                       # number of overall MSHR misses
system.cpu.dcache.overall_mshr_misses::total        16920                       # number of overall MSHR misses
system.cpu.dcache.demand_mshr_miss_latency::.cpu.data    581102400                       # number of demand (read+write) MSHR miss cycles
system.cpu.dcache.demand_mshr_miss_latency::total    581102400                       # number of demand (read+write) MSHR miss cycles
system.cpu.dcache.overall_mshr_miss_latency::.cpu.data    581102400                       # number of overall MSHR miss cycles
system.cpu.dcache.overall_mshr_miss_latency::.cpu.dcache.prefetcher    244641871                       # number of overall MSHR miss cycles
system.cpu.dcache.overall_mshr_miss_latency::total    825744271                       # number of overall MSHR miss cycles
system.cpu.dcache.demand_mshr_miss_rate::.cpu.data     0.017985                       # mshr miss rate for demand accesses
system.cpu.dcache.demand_mshr_miss_rate::total     0.017985                       # mshr miss rate for demand accesses
system.cpu.dcache.overall_mshr_miss_rate::.cpu.data     0.017985                       # mshr miss rate for overall accesses
system.cpu.dcache.overall_mshr_miss_rate::.cpu.dcache.prefetcher          inf                       # mshr miss rate for overall accesses
system.cpu.dcache.overall_mshr_miss_rate::total     0.024085                       # mshr miss rate for overall accesses
system.cpu.dcache.demand_avg_mshr_miss_latency::.cpu.data 45991.483973                       # average overall mshr miss latency
system.cpu.dcache.demand_avg_mshr_miss_latency::total 45991.483973                       # average overall mshr miss latency
system.cpu.dcache.overall_avg_mshr_miss_latency::.cpu.data 45991.483973                       # average overall mshr miss latency
system.cpu.dcache.overall_avg_mshr_miss_latency::.cpu.dcache.prefetcher 57092.618670                       # average overall mshr miss latency
system.cpu.dcache.overall_avg_mshr_miss_latency::total 48802.852896                       # average overall mshr miss latency
system.cpu.dcache.replacements                  15896                       # number of replacements
system.cpu.dcache.ReadReq_hits::.cpu.data       499120                       # number of ReadReq hits
system.cpu.dcache.ReadReq_hits::total          499120                       # number of ReadReq hits
system.cpu.dcache.ReadReq_misses::.cpu.data        33017                       # number of ReadReq misses
system.cpu.dcache.ReadReq_misses::total         33017                       # number of ReadReq misses
system.cpu.dcache.ReadReq_miss_latency::.cpu.data   1604719600                       # number of ReadReq miss cycles
system.cpu.dcache.ReadReq_miss_latency::total   1604719600                       # number of ReadReq miss cycles
system.cpu.dcache.ReadReq_accesses::.cpu.data       532137                       # number of ReadReq accesses(hits+misses)
system.cpu.dcache.ReadReq_accesses::total       532137                       # number of ReadReq accesses(hits+misses)
system.cpu.dcache.ReadReq_miss_rate::.cpu.data     0.062046                       # miss rate for ReadReq accesses
system.cpu.dcache.ReadReq_miss_rate::total     0.062046                       # miss rate for ReadReq accesses
system.cpu.dcache.ReadReq_avg_miss_latency::.cpu.data 48602.828846                       # average ReadReq miss latency
system.cpu.dcache.ReadReq_avg_miss_latency::total 48602.828846                       # average ReadReq miss latency
system.cpu.dcache.ReadReq_mshr_hits::.cpu.data        22461                       # number of ReadReq MSHR hits
system.cpu.dcache.ReadReq_mshr_hits::total        22461                       # number of ReadReq MSHR hits
system.cpu.dcache.ReadReq_mshr_misses::.cpu.data        10556                       # number of ReadReq MSHR misses
system.cpu.dcache.ReadReq_mshr_misses::total        10556                       # number of ReadReq MSHR misses
system.cpu.dcache.ReadReq_mshr_miss_latency::.cpu.data    478712400                       # number of ReadReq MSHR miss cycles
system.cpu.dcache.ReadReq_mshr_miss_latency::total    478712400                       # number of ReadReq MSHR miss cycles
system.cpu.dcache.ReadReq_mshr_miss_rate::.cpu.data     0.019837                       # mshr miss rate for ReadReq accesses
system.cpu.dcache.ReadReq_mshr_miss_rate::total     0.019837                       # mshr miss rate for ReadReq accesses
system.cpu.dcache.ReadReq_avg_mshr_miss_latency::.cpu.data 45349.791588                       # average ReadReq mshr miss latency
system.cpu.dcache.ReadReq_avg_mshr_miss_latency::total 45349.791588                       # average ReadReq mshr miss latency
system.cpu.dcache.WriteReq_hits::.cpu.data       168263                       # number of WriteReq hits
system.cpu.dcache.WriteReq_hits::total         168263                       # number of WriteReq hits
system.cpu.dcache.WriteReq_misses::.cpu.data         2119                       # number of WriteReq misses
system.cpu.dcache.WriteReq_misses::total         2119                       # number of WriteReq misses
system.cpu.dcache.WriteReq_miss_latency::.cpu.data    105382800                       # number of WriteReq miss cycles
system.cpu.dcache.WriteReq_miss_latency::total    105382800                       # number of WriteReq miss cycles
system.cpu.dcache.WriteReq_accesses::.cpu.data       170382                       # number of WriteReq accesses(hits+misses)
system.cpu.dcache.WriteReq_accesses::total       170382                       # number of WriteReq accesses(hits+misses)
system.cpu.dcache.WriteReq_miss_rate::.cpu.data     0.012437                       # miss rate for WriteReq accesses
system.cpu.dcache.WriteReq_miss_rate::total     0.012437                       # miss rate for WriteReq accesses
system.cpu.dcache.WriteReq_avg_miss_latency::.cpu.data 49732.326569                       # average WriteReq miss latency
system.cpu.dcache.WriteReq_avg_miss_latency::total 49732.326569                       # average WriteReq miss latency
system.cpu.dcache.WriteReq_mshr_hits::.cpu.data           40                       # number of WriteReq MSHR hits
system.cpu.dcache.WriteReq_mshr_hits::total           40                       # number of WriteReq MSHR hits
system.cpu.dcache.WriteReq_mshr_misses::.cpu.data         2079                       # number of WriteReq MSHR misses
system.cpu.dcache.WriteReq_mshr_misses::total         2079                       # number of WriteReq MSHR misses
system.cpu.dcache.WriteReq_mshr_miss_latency::.cpu.data    102390000                       # number of WriteReq MSHR miss cycles
[...]
system.l2cache.overall_mshr_miss_rate::.cpu.data     0.516667                       # mshr miss rate for overall accesses
system.l2cache.overall_mshr_miss_rate::.cpu.dcache.prefetcher     0.883333                       # mshr miss rate for overall accesses
system.l2cache.overall_mshr_miss_rate::.l2cache.prefetcher          inf                       # mshr miss rate for overall accesses
system.l2cache.overall_mshr_miss_rate::total     0.388332                       # mshr miss rate for overall accesses
system.l2cache.demand_avg_mshr_miss_latency::.cpu.inst 60032.692308                       # average overall mshr miss latency
system.l2cache.demand_avg_mshr_miss_latency::.cpu.data 60215.053763                       # average overall mshr miss latency
system.l2cache.demand_avg_mshr_miss_latency::.cpu.dcache.prefetcher 59191.415094                       # average overall mshr miss latency
system.l2cache.demand_avg_mshr_miss_latency::total 60016.404580                       # average overall mshr miss latency
system.l2cache.overall_avg_mshr_miss_latency::.cpu.inst 60032.692308                       # average overall mshr miss latency
system.l2cache.overall_avg_mshr_miss_latency::.cpu.data 60215.053763                       # average overall mshr miss latency
system.l2cache.overall_avg_mshr_miss_latency::.cpu.dcache.prefetcher 59191.415094                       # average overall mshr miss latency
system.l2cache.overall_avg_mshr_miss_latency::.l2cache.prefetcher 57499.250000                       # average overall mshr miss latency
system.l2cache.overall_avg_mshr_miss_latency::total 60001.125948                       # average overall mshr miss latency
system.l2cache.replacements                       666                       # number of replacements
system.l2cache.WritebackDirty_hits::.writebacks          132                       # number of WritebackDirty hits
system.l2cache.WritebackDirty_hits::total          132                       # number of WritebackDirty hits
system.l2cache.WritebackDirty_accesses::.writebacks          132                       # number of WritebackDirty accesses(hits+misses)
system.l2cache.WritebackDirty_accesses::total          132                       # number of WritebackDirty accesses(hits+misses)
system.l2cache.CleanEvict_mshr_misses::.writebacks           20                       # number of CleanEvict MSHR misses
system.l2cache.CleanEvict_mshr_misses::total           20                       # number of CleanEvict MSHR misses
system.l2cache.CleanEvict_mshr_miss_rate::.writebacks          inf                       # mshr miss rate for CleanEvict accesses
system.l2cache.CleanEvict_mshr_miss_rate::total          inf                       # mshr miss rate for CleanEvict accesses
system.l2cache.HardPFReq_mshr_misses::.l2cache.prefetcher            4                       # number of HardPFReq MSHR misses
system.l2cache.HardPFReq_mshr_misses::total            4                       # number of HardPFReq MSHR misses
system.l2cache.HardPFReq_mshr_miss_latency::.l2cache.prefetcher       229997                       # number of HardPFReq MSHR miss cycles
system.l2cache.HardPFReq_mshr_miss_latency::total       229997                       # number of HardPFReq MSHR miss cycles
system.l2cache.HardPFReq_mshr_miss_rate::.l2cache.prefetcher          inf                       # mshr miss rate for HardPFReq accesses
system.l2cache.HardPFReq_mshr_miss_rate::total          inf                       # mshr miss rate for HardPFReq accesses
system.l2cache.HardPFReq_avg_mshr_miss_latency::.l2cache.prefetcher 57499.250000                       # average HardPFReq mshr miss latency
system.l2cache.HardPFReq_avg_mshr_miss_latency::total 57499.250000                       # average HardPFReq mshr miss latency
system.l2cache.UpgradeReq_hits::.cpu.data            1                       # number of UpgradeReq hits
system.l2cache.UpgradeReq_hits::total               1                       # number of UpgradeReq hits
system.l2cache.UpgradeReq_accesses::.cpu.data            1                       # number of UpgradeReq accesses(hits+misses)
system.l2cache.UpgradeReq_accesses::total            1                       # number of UpgradeReq accesses(hits+misses)
system.l2cache.ReadExReq_hits::.cpu.data           10                       # number of ReadExReq hits
system.l2cache.ReadExReq_hits::total               10                       # number of ReadExReq hits
system.l2cache.ReadExReq_misses::.cpu.data           37                       # number of ReadExReq misses
system.l2cache.ReadExReq_misses::total             37                       # number of ReadExReq misses
system.l2cache.ReadExReq_miss_latency::.cpu.data      2492800                       # number of ReadExReq miss cycles
system.l2cache.ReadExReq_miss_latency::total      2492800                       # number of ReadExReq miss cycles
system.l2cache.ReadExReq_accesses::.cpu.data           47                       # number of ReadExReq accesses(hits+misses)
system.l2cache.ReadExReq_accesses::total           47                       # number of ReadExReq accesses(hits+misses)
system.l2cache.ReadExReq_miss_rate::.cpu.data     0.787234                       # miss rate for ReadExReq accesses
system.l2cache.ReadExReq_miss_rate::total     0.787234                       # miss rate for ReadExReq accesses
system.l2cache.ReadExReq_avg_miss_latency::.cpu.data 67372.972973                       # average ReadExReq miss latency
system.l2cache.ReadExReq_avg_miss_latency::total 67372.972973                       # average ReadExReq miss latency
system.l2cache.ReadExReq_mshr_misses::.cpu.data           37                       # number of ReadExReq MSHR misses
system.l2cache.ReadExReq_mshr_misses::total           37                       # number of ReadExReq MSHR misses
system.l2cache.ReadExReq_mshr_miss_latency::.cpu.data      2196800                       # number of ReadExReq MSHR miss cycles
system.l2cache.ReadExReq_mshr_miss_latency::total      2196800                       # number of ReadExReq MSHR miss cycles
system.l2cache.ReadExReq_mshr_miss_rate::.cpu.data     0.787234                       # mshr miss rate for ReadExReq accesses
system.l2cache.ReadExReq_mshr_miss_rate::total     0.787234                       # mshr miss rate for ReadExReq accesses
system.l2cache.ReadExReq_avg_mshr_miss_latency::.cpu.data 59372.972973                       # average ReadExReq mshr miss latency
system.l2cache.ReadExReq_avg_mshr_miss_latency::total 59372.972973                       # average ReadExReq mshr miss latency
system.l2cache.ReadSharedReq_hits::.cpu.inst          861                       # number of ReadSharedReq hits
system.l2cache.ReadSharedReq_hits::.cpu.data          163                       # number of ReadSharedReq hits
system.l2cache.ReadSharedReq_hits::.cpu.dcache.prefetcher            7                       # number of ReadSharedReq hits
system.l2cache.ReadSharedReq_hits::total         1031                       # number of ReadSharedReq hits
system.l2cache.ReadSharedReq_misses::.cpu.inst          416                       # number of ReadSharedReq misses
system.l2cache.ReadSharedReq_misses::.cpu.data          150                       # number of ReadSharedReq misses
system.l2cache.ReadSharedReq_misses::.cpu.dcache.prefetcher           53                       # number of ReadSharedReq misses
system.l2cache.ReadSharedReq_misses::total          619                       # number of ReadSharedReq misses
system.l2cache.ReadSharedReq_miss_latency::.cpu.inst     28293600                       # number of ReadSharedReq miss cycles
system.l2cache.ReadSharedReq_miss_latency::.cpu.data     10251600                       # number of ReadSharedReq miss cycles
system.l2cache.ReadSharedReq_miss_latency::.cpu.dcache.prefetcher      3561145                       # number of ReadSharedReq miss cycles
system.l2cache.ReadSharedReq_miss_latency::total     42106345                       # number of ReadSharedReq miss cycles
system.l2cache.ReadSharedReq_accesses::.cpu.inst         1277                       # number of ReadSharedReq accesses(hits+misses)
system.l2cache.ReadSharedReq_accesses::.cpu.data          313                       # number of ReadSharedReq accesses(hits+misses)
system.l2cache.ReadSharedReq_accesses::.cpu.dcache.prefetcher           60                       # number of ReadSharedReq accesses(hits+misses)
system.l2cache.ReadSharedReq_accesses::total         1650                       # number of ReadSharedReq accesses(hits+misses)
system.l2cache.ReadSharedReq_miss_rate::.cpu.inst     0.325764                       # miss rate for ReadSharedReq accesses
system.l2cache.ReadSharedReq_miss_rate::.cpu.data     0.479233                       # miss rate for ReadSharedReq accesses
system.l2cache.ReadSharedReq_miss_rate::.cpu.dcache.prefetcher     0.883333                       # miss rate for ReadSharedReq accesses
system.l2cache.ReadSharedReq_miss_rate::total     0.375152                       # miss rate for ReadSharedReq accesses
system.l2cache.ReadSharedReq_avg_miss_latency::.cpu.inst 68013.461538                       # average ReadSharedReq miss latency
system.l2cache.ReadSharedReq_avg_miss_latency::.cpu.data        68344                       # average ReadSharedReq miss latency
system.l2cache.ReadSharedReq_avg_miss_latency::.cpu.dcache.prefetcher 67191.415094                       # average ReadSharedReq miss latency
system.l2cache.ReadSharedReq_avg_miss_latency::total 68023.174475                       # average ReadSharedReq miss latency
system.l2cache.ReadSharedReq_mshr_hits::.cpu.data            1                       # number of ReadSharedReq MSHR hits
system.l2cache.ReadSharedReq_mshr_hits::total            1                       # number of ReadSharedReq MSHR hits
system.l2cache.ReadSharedReq_mshr_misses::.cpu.inst          416                       # number of ReadSharedReq MSHR misses
system.l2cache.ReadSharedReq_mshr_misses::.cpu.data          149                       # number of ReadSharedReq MSHR misses
system.l2cache.ReadSharedReq_mshr_misses::.cpu.dcache.prefetcher           53                       # number of ReadSharedReq MSHR misses
system.l2cache.ReadSharedReq_mshr_misses::total          618                       # number of ReadSharedReq MSHR misses
system.l2cache.ReadSharedReq_mshr_miss_latency::.cpu.inst     24973600                       # number of ReadSharedReq MSHR miss cycles
system.l2cache.ReadSharedReq_mshr_miss_latency::.cpu.data      9003200                       # number of ReadSharedReq MSHR miss cycles
system.l2cache.ReadSharedReq_mshr_miss_latency::.cpu.dcache.prefetcher      3137145                       # number of ReadSharedReq MSHR miss cycles
system.l2cache.ReadSharedReq_mshr_miss_latency::total     37113945                       # number of ReadSharedReq MSHR miss cycles
system.l2cache.ReadSharedReq_mshr_miss_rate::.cpu.inst     0.325764                       # mshr miss rate for ReadSharedReq accesses
system.l2cache.ReadSharedReq_mshr_miss_rate::.cpu.data     0.476038                       # mshr miss rate for ReadSharedReq accesses
system.l2cache.ReadSharedReq_mshr_miss_rate::.cpu.dcache.prefetcher     0.883333                       # mshr miss rate for ReadSharedReq accesses
system.l2cache.ReadSharedReq_mshr_miss_rate::total     0.374545                       # mshr miss rate for ReadSharedReq accesses
system.l2cache.ReadSharedReq_avg_mshr_miss_latency::.cpu.inst 60032.692308                       # average ReadSharedReq mshr miss latency
system.l2cache.ReadSharedReq_avg_mshr_miss_latency::.cpu.data 60424.161074                       # average ReadSharedReq mshr miss latency
system.l2cache.ReadSharedReq_avg_mshr_miss_latency::.cpu.dcache.prefetcher 59191.415094                       # average ReadSharedReq mshr miss latency
system.l2cache.ReadSharedReq_avg_mshr_miss_latency::total 60054.927184                       # average ReadSharedReq mshr miss latency
system.l2cache.prefetcher.pwrStateResidencyTicks::UNDEFINED    132079200                       # Cumulative time (in ticks) in various power states
system.l2cache.tags.pwrStateResidencyTicks::UNDEFINED    132079200                       # Cumulative time (in ticks) in various power states
system.l2cache.tags.tagsinuse                    4096                       # Cycle average of tags in use
system.l2cache.tags.total_refs                  15887                       # Total number of references to valid blocks.
system.l2cache.tags.sampled_refs                 4762                       # Sample count of references to valid blocks.
system.l2cache.tags.avg_refs                 3.336203                       # Average number of references to valid blocks.
system.l2cache.tags.warmup_cycle                    0                       # Cycle when the warmup percentage was hit.
system.l2cache.tags.occ_blocks::.writebacks    34.539267                       # Average occupied blocks per requestor
system.l2cache.tags.occ_blocks::.cpu.inst  1123.337711                       # Average occupied blocks per requestor
system.l2cache.tags.occ_blocks::.cpu.data  1893.871195                       # Average occupied blocks per requestor
system.l2cache.tags.occ_blocks::.cpu.dcache.prefetcher   917.280676                       # Average occupied blocks per requestor
system.l2cache.tags.occ_blocks::.l2cache.prefetcher   126.971151                       # Average occupied blocks per requestor
system.l2cache.tags.occ_percent::.writebacks     0.008432                       # Average percentage of cache occupancy
system.l2cache.tags.occ_percent::.cpu.inst     0.274252                       # Average percentage of cache occupancy
system.l2cache.tags.occ_percent::.cpu.data     0.462371                       # Average percentage of cache occupancy
system.l2cache.tags.occ_percent::.cpu.dcache.prefetcher     0.223945                       # Average percentage of cache occupancy
system.l2cache.tags.occ_percent::.l2cache.prefetcher     0.030999                       # Average percentage of cache occupancy
system.l2cache.tags.occ_percent::total              1                       # Average percentage of cache occupancy
system.l2cache.tags.occ_task_id_blocks::1022          965                       # Occupied blocks per task id
system.l2cache.tags.occ_task_id_blocks::1024         3131                       # Occupied blocks per task id
system.l2cache.tags.age_task_id_blocks_1022::0            9                       # Occupied blocks per task id
system.l2cache.tags.age_task_id_blocks_1022::1           21                       # Occupied blocks per task id
system.l2cache.tags.age_task_id_blocks_1022::2          904                       # Occupied blocks per task id
system.l2cache.tags.age_task_id_blocks_1022::3           31                       # Occupied blocks per task id
system.l2cache.tags.age_task_id_blocks_1024::0          172                       # Occupied blocks per task id
system.l2cache.tags.age_task_id_blocks_1024::1          162                       # Occupied blocks per task id
system.l2cache.tags.age_task_id_blocks_1024::2         2606                       # Occupied blocks per task id
system.l2cache.tags.age_task_id_blocks_1024::3          191                       # Occupied blocks per task id
system.l2cache.tags.occ_task_id_percent::1022     0.235596                       # Percentage of cache occupancy per task id
system.l2cache.tags.occ_task_id_percent::1024     0.764404                       # Percentage of cache occupancy per task id
system.l2cache.tags.tag_accesses                27778                       # Number of tag accesses
system.l2cache.tags.data_accesses               27778                       # Number of data accesses
system.mem_ctrl.pwrStateResidencyTicks::UNDEFINED    132079200                       # Cumulative time (in ticks) in various power states
system.mem_ctrl.bytes_read::.cpu.inst           26560                       # Number of bytes read from this memory
system.mem_ctrl.bytes_read::.cpu.data           11904                       # Number of bytes read from this memory
system.mem_ctrl.bytes_read::.cpu.dcache.prefetcher         3392                       # Number of bytes read from this memory
system.mem_ctrl.bytes_read::.l2cache.prefetcher          256                       # Number of bytes read from this memory
system.mem_ctrl.bytes_read::total               42112                       # Number of bytes read from this memory
system.mem_ctrl.bytes_inst_read::.cpu.inst        26560                       # Number of instructions bytes read from this memory
system.mem_ctrl.bytes_inst_read::total          26560                       # Number of instructions bytes read from this memory
system.mem_ctrl.bytes_written::.writebacks         2880                       # Number of bytes written to this memory
system.mem_ctrl.bytes_written::total             2880                       # Number of bytes written to this memory
system.mem_ctrl.num_reads::.cpu.inst              415                       # Number of read requests responded to by this memory
system.mem_ctrl.num_reads::.cpu.data              186                       # Number of read requests responded to by this memory
system.mem_ctrl.num_reads::.cpu.dcache.prefetcher           53                       # Number of read requests responded to by this memory
system.mem_ctrl.num_reads::.l2cache.prefetcher            4                       # Number of read requests responded to by this memory
system.mem_ctrl.num_reads::total                  658                       # Number of read requests responded to by this memory
system.mem_ctrl.num_writes::.writebacks            45                       # Number of write requests responded to by this memory
system.mem_ctrl.num_writes::total                  45                       # Number of write requests responded to by this memory
system.mem_ctrl.bw_read::.cpu.inst          201091466                       # Total read bandwidth from this memory (bytes/s)
system.mem_ctrl.bw_read::.cpu.data           90127742                       # Total read bandwidth from this memory (bytes/s)
system.mem_ctrl.bw_read::.cpu.dcache.prefetcher     25681561                       # Total read bandwidth from this memory (bytes/s)
system.mem_ctrl.bw_read::.l2cache.prefetcher      1938231                       # Total read bandwidth from this memory (bytes/s)
system.mem_ctrl.bw_read::total              318839000                       # Total read bandwidth from this memory (bytes/s)
system.mem_ctrl.bw_inst_read::.cpu.inst     201091466                       # Instruction read bandwidth from this memory (bytes/s)
system.mem_ctrl.bw_inst_read::total         201091466                       # Instruction read bandwidth from this memory (bytes/s)
system.mem_ctrl.bw_write::.writebacks        21805099                       # Write bandwidth from this memory (bytes/s)
system.mem_ctrl.bw_write::total              21805099                       # Write bandwidth from this memory (bytes/s)
system.mem_ctrl.bw_total::.writebacks        21805099                       # Total bandwidth to/from this memory (bytes/s)
system.mem_ctrl.bw_total::.cpu.inst         201091466                       # Total bandwidth to/from this memory (bytes/s)
system.mem_ctrl.bw_total::.cpu.data          90127742                       # Total bandwidth to/from this memory (bytes/s)
system.mem_ctrl.bw_total::.cpu.dcache.prefetcher     25681561                       # Total bandwidth to/from this memory (bytes/s)
system.mem_ctrl.bw_total::.l2cache.prefetcher      1938231                       # Total bandwidth to/from this memory (bytes/s)
system.mem_ctrl.bw_total::total             340644098                       # Total bandwidth to/from this memory (bytes/s)

---------- End Simulation Statistics   ----------
