
---------- Begin Simulation Statistics ----------
final_tick                                 1113158400                       # Number of ticks from beginning of simulation (restored from checkpoints and never reset)
host_inst_rate                                 178600                       # Simulator instruction rate (inst/s)
host_mem_usage                                4407924                       # Number of bytes of host memory used
host_op_rate                                   312303                       # Simulator op (including micro ops) rate (op/s)
host_seconds                                    11.92                       # Real time elapsed on the host
host_tick_rate                               93362653                       # Simulator tick rate (ticks/s)
sim_freq                                 1000000000000                       # Frequency of simulated ticks
sim_insts                                     2129422                       # Number of instructions simulated
sim_ops                                       3723565                       # Number of ops (including micro ops) simulated
sim_seconds                                  0.001113                       # Number of seconds simulated
sim_ticks                                  1113158400                       # Number of ticks simulated
system.cpu.branchPred.BTBCorrect                    0                       # Number of correct BTB predictions (this stat may not work properly.
system.cpu.branchPred.BTBHitPct              0.000000                       # BTB Hit Percentage
system.cpu.branchPred.BTBHits                       0                       # Number of BTB hits
system.cpu.branchPred.BTBLookups               443097                       # Number of BTB lookups
system.cpu.branchPred.RASInCorrect                  9                       # Number of incorrect RAS predictions.
system.cpu.branchPred.condIncorrect             23788                       # Number of conditional branches incorrect
system.cpu.branchPred.condPredicted            470314                       # Number of conditional branches predicted
system.cpu.branchPred.indirectHits             244380                       # Number of indirect target hits.
system.cpu.branchPred.indirectLookups          443097                       # Number of indirect predictor lookups.
system.cpu.branchPred.indirectMisses           198717                       # Number of indirect misses.
system.cpu.branchPred.lookups                  500407                       # Number of BP lookups
system.cpu.branchPred.usedRAS                   13190                       # Number of times the RAS was used to get a target.
system.cpu.branchPredindirectMispredicted        12112                       # Number of mispredicted indirect branches.
system.cpu.cc_regfile_reads                   2418618                       # number of cc regfile reads
system.cpu.cc_regfile_writes                  1954755                       # number of cc regfile writes
system.cpu.commit.amos                              0                       # Number of atomic instructions committed
system.cpu.commit.branchMispredicts             23894                       # The number of times a branch was mispredicted
system.cpu.commit.branches                     361541                       # Number of branches committed
system.cpu.commit.bw_lim_events                621719                       # number cycles where commit BW limit reached
system.cpu.commit.commitNonSpecStalls             910                       # The number of times commit has been forced to stall to communicate backwards
system.cpu.commit.commitSquashedInsts          864159                       # The number of squashed insts skipped by commit
system.cpu.commit.committedInsts              2129422                       # Number of instructions committed
system.cpu.commit.committedOps                3723565                       # Number of ops (including micro ops) committed
system.cpu.commit.committed_per_cycle::samples      2381531                       # Number of insts commited each cycle
system.cpu.commit.committed_per_cycle::mean     1.563517                       # Number of insts commited each cycle
system.cpu.commit.committed_per_cycle::stdev     1.730132                       # Number of insts commited each cycle
system.cpu.commit.committed_per_cycle::underflows            0      0.00%      0.00% # Number of insts commited each cycle
system.cpu.commit.committed_per_cycle::0      1169297     49.10%     49.10% # Number of insts commited each cycle
system.cpu.commit.committed_per_cycle::1       181384      7.62%     56.71% # Number of insts commited each cycle
system.cpu.commit.committed_per_cycle::2       172088      7.23%     63.94% # Number of insts commited each cycle
system.cpu.commit.committed_per_cycle::3       237043      9.95%     73.89% # Number of insts commited each cycle
system.cpu.commit.committed_per_cycle::4       621719     26.11%    100.00% # Number of insts commited each cycle
system.cpu.commit.committed_per_cycle::overflows            0      0.00%    100.00% # Number of insts commited each cycle
system.cpu.commit.committed_per_cycle::min_value            0                       # Number of insts commited each cycle
system.cpu.commit.committed_per_cycle::max_value            4                       # Number of insts commited each cycle
system.cpu.commit.committed_per_cycle::total      2381531                       # Number of insts commited each cycle
system.cpu.commit.fp_insts                      76740                       # Number of committed floating point instructions.
system.cpu.commit.function_calls                11260                       # Number of function calls committed.
system.cpu.commit.int_insts                   3667533                       # Number of committed integer instructions.
system.cpu.commit.loads                        515997                       # Number of loads committed
system.cpu.commit.membars                           1                       # Number of memory barriers committed
system.cpu.commit.op_class_0::No_OpClass        20531      0.55%      0.55% # Class of committed instruction
system.cpu.commit.op_class_0::IntAlu          2923214     78.51%     79.06% # Class of committed instruction
system.cpu.commit.op_class_0::IntMult            1510      0.04%     79.10% # Class of committed instruction
system.cpu.commit.op_class_0::IntDiv            36369      0.98%     80.07% # Class of committed instruction
system.cpu.commit.op_class_0::FloatAdd           3045      0.08%     80.16% # Class of committed instruction
system.cpu.commit.op_class_0::FloatCmp              0      0.00%     80.16% # Class of committed instruction
system.cpu.commit.op_class_0::FloatCvt           1488      0.04%     80.20% # Class of committed instruction
system.cpu.commit.op_class_0::FloatMult             0      0.00%     80.20% # Class of committed instruction
system.cpu.commit.op_class_0::FloatMultAcc            0      0.00%     80.20% # Class of committed instruction
system.cpu.commit.op_class_0::FloatDiv              0      0.00%     80.20% # Class of committed instruction
system.cpu.commit.op_class_0::FloatMisc             0      0.00%     80.20% # Class of committed instruction
system.cpu.commit.op_class_0::FloatSqrt             0      0.00%     80.20% # Class of committed instruction
system.cpu.commit.op_class_0::SimdAdd            6388      0.17%     80.37% # Class of committed instruction
system.cpu.commit.op_class_0::SimdAddAcc            0      0.00%     80.37% # Class of committed instruction
system.cpu.commit.op_class_0::SimdAlu           11466      0.31%     80.68% # Class of committed instruction
system.cpu.commit.op_class_0::SimdCmp               0      0.00%     80.68% # Class of committed instruction
system.cpu.commit.op_class_0::SimdCvt           12492      0.34%     81.01% # Class of committed instruction
system.cpu.commit.op_class_0::SimdMisc           6725      0.18%     81.19% # Class of committed instruction
system.cpu.commit.op_class_0::SimdMult              0      0.00%     81.19% # Class of committed instruction
system.cpu.commit.op_class_0::SimdMultAcc            0      0.00%     81.19% # Class of committed instruction
system.cpu.commit.op_class_0::SimdShift          1331      0.04%     81.23% # Class of committed instruction
system.cpu.commit.op_class_0::SimdShiftAcc            0      0.00%     81.23% # Class of committed instruction
system.cpu.commit.op_class_0::SimdDiv               0      0.00%     81.23% # Class of committed instruction
system.cpu.commit.op_class_0::SimdSqrt              0      0.00%     81.23% # Class of committed instruction
system.cpu.commit.op_class_0::SimdFloatAdd            0      0.00%     81.23% # Class of committed instruction
system.cpu.commit.op_class_0::SimdFloatAlu            0      0.00%     81.23% # Class of committed instruction
system.cpu.commit.op_class_0::SimdFloatCmp            0      0.00%     81.23% # Class of committed instruction
system.cpu.commit.op_class_0::SimdFloatCvt            0      0.00%     81.23% # Class of committed instruction
system.cpu.commit.op_class_0::SimdFloatDiv            0      0.00%     81.23% # Class of committed instruction
system.cpu.commit.op_class_0::SimdFloatMisc            0      0.00%     81.23% # Class of committed instruction
system.cpu.commit.op_class_0::SimdFloatMult            0      0.00%     81.23% # Class of committed instruction
system.cpu.commit.op_class_0::SimdFloatMultAcc            0      0.00%     81.23% # Class of committed instruction
system.cpu.commit.op_class_0::SimdFloatSqrt            0      0.00%     81.23% # Class of committed instruction
system.cpu.commit.op_class_0::SimdReduceAdd            0      0.00%     81.23% # Class of committed instruction
system.cpu.commit.op_class_0::SimdReduceAlu            0      0.00%     81.23% # Class of committed instruction
system.cpu.commit.op_class_0::SimdReduceCmp            0      0.00%     81.23% # Class of committed instruction
system.cpu.commit.op_class_0::SimdFloatReduceAdd            0      0.00%     81.23% # Class of committed instruction
system.cpu.commit.op_class_0::SimdFloatReduceCmp            0      0.00%     81.23% # Class of committed instruction
system.cpu.commit.op_class_0::SimdAes               0      0.00%     81.23% # Class of committed instruction
system.cpu.commit.op_class_0::SimdAesMix            0      0.00%     81.23% # Class of committed instruction
system.cpu.commit.op_class_0::SimdSha1Hash            0      0.00%     81.23% # Class of committed instruction
system.cpu.commit.op_class_0::SimdSha1Hash2            0      0.00%     81.23% # Class of committed instruction
system.cpu.commit.op_class_0::SimdSha256Hash            0      0.00%     81.23% # Class of committed instruction
system.cpu.commit.op_class_0::SimdSha256Hash2            0      0.00%     81.23% # Class of committed instruction
system.cpu.commit.op_class_0::SimdShaSigma2            0      0.00%     81.23% # Class of committed instruction
system.cpu.commit.op_class_0::SimdShaSigma3            0      0.00%     81.23% # Class of committed instruction
system.cpu.commit.op_class_0::SimdPredAlu            0      0.00%     81.23% # Class of committed instruction
system.cpu.commit.op_class_0::MemRead          495815     13.32%     94.54% # Class of committed instruction
system.cpu.commit.op_class_0::MemWrite         170260      4.57%     99.12% # Class of committed instruction
system.cpu.commit.op_class_0::FloatMemRead        20182      0.54%     99.66% # Class of committed instruction
system.cpu.commit.op_class_0::FloatMemWrite        12749      0.34%    100.00% # Class of committed instruction
system.cpu.commit.op_class_0::IprAccess             0      0.00%    100.00% # Class of committed instruction
system.cpu.commit.op_class_0::InstPrefetch            0      0.00%    100.00% # Class of committed instruction
system.cpu.commit.op_class_0::total           3723565                       # Class of committed instruction
system.cpu.commit.refs                         699006                       # Number of memory references committed
system.cpu.commit.swp_count                         0                       # Number of s/w prefetches committed
system.cpu.commit.vec_insts                         0                       # Number of committed Vector instructions.
system.cpu.committedInsts                     2129422                       # Number of Instructions Simulated
system.cpu.committedOps                       3723565                       # Number of Ops (including micro ops) Simulated
system.cpu.cpi                               1.306879                       # CPI: Cycles Per Instruction
system.cpu.cpi_total                         1.306879                       # CPI: Total CPI of All Threads
system.cpu.dcache.prefetcher.num_hwpf_issued         8012                       # number of hwpf issued
system.cpu.dcache.prefetcher.pfBufferHit        34369                       # number of redundant prefetches already in prefetch queue
system.cpu.dcache.prefetcher.pfIdentified        49916                       # number of prefetch candidates identified
system.cpu.dcache.prefetcher.pfInCache              0                       # number of redundant prefetches already in cache/mshr dropped
system.cpu.dcache.prefetcher.pfRemovedFull            0                       # number of prefetches dropped due to prefetch queue size
system.cpu.dcache.prefetcher.pfSpanPage          4480                       # number of prefetches that crossed the page
system.cpu.decode.BlockedCycles               1026307                       # Number of cycles decode is blocked
system.cpu.decode.DecodedInsts                4798719                       # Number of instructions handled by decode
system.cpu.decode.IdleCycles                   307986                       # Number of cycles decode is idle
system.cpu.decode.RunCycles                   1171647                       # Number of cycles decode is running
system.cpu.decode.SquashCycles                  23956                       # Number of cycles decode is squashing
system.cpu.decode.UnblockCycles                 87781                       # Number of cycles decode is unblocking
system.cpu.dtb.rdAccesses                      596702                       # TLB accesses on read requests
system.cpu.dtb.rdMisses                          1989                       # TLB misses on read requests
system.cpu.dtb.wrAccesses                      202034                       # TLB accesses on write requests
system.cpu.dtb.wrMisses                           175                       # TLB misses on write requests
system.cpu.fetch.Branches                      500407                       # Number of branches that fetch encountered
system.cpu.fetch.CacheLines                    247927                       # Number of cache lines fetched
system.cpu.fetch.Cycles                       2251551                       # Number of cycles fetch has run and was not squashing or blocked
system.cpu.fetch.IcacheSquashes                  4611                       # Number of outstanding Icache misses that were squashed
system.cpu.fetch.IcacheWaitRetryStallCycles           20                       # Number of stall cycles due to full MSHR
system.cpu.fetch.Insts                        2879225                       # Number of instructions fetch has processed
system.cpu.fetch.MiscStallCycles                  157                       # Number of cycles fetch has spent waiting on interrupts, or bad addresses, or out of MSHRs
system.cpu.fetch.PendingQuiesceStallCycles            6                       # Number of stall cycles due to pending quiesce instructions
system.cpu.fetch.PendingTrapStallCycles           801                       # Number of stall cycles due to pending traps
system.cpu.fetch.SquashCycles                   47912                       # Number of cycles fetch has spent squashing
system.cpu.fetch.branchRate                  0.179815                       # Number of branch fetches per cycle
system.cpu.fetch.icacheStallCycles             341186                       # Number of cycles fetch is stalled on an Icache miss
system.cpu.fetch.predictedBranches             257570                       # Number of branches that fetch has predicted taken
system.cpu.fetch.rate                        1.034614                       # Number of inst fetches per cycle
system.cpu.fetch.rateDist::samples            2617677                       # Number of instructions fetched each cycle (Total)
system.cpu.fetch.rateDist::mean              1.935927                       # Number of instructions fetched each cycle (Total)
system.cpu.fetch.rateDist::stdev             1.929531                       # Number of instructions fetched each cycle (Total)
system.cpu.fetch.rateDist::underflows               0      0.00%      0.00% # Number of instructions fetched each cycle (Total)
system.cpu.fetch.rateDist::0                  1243559     47.51%     47.51% # Number of instructions fetched each cycle (Total)
system.cpu.fetch.rateDist::1                    74965      2.86%     50.37% # Number of instructions fetched each cycle (Total)
system.cpu.fetch.rateDist::2                    61308      2.34%     52.71% # Number of instructions fetched each cycle (Total)
system.cpu.fetch.rateDist::3                    81329      3.11%     55.82% # Number of instructions fetched each cycle (Total)
system.cpu.fetch.rateDist::4                  1156516     44.18%    100.00% # Number of instructions fetched each cycle (Total)
system.cpu.fetch.rateDist::overflows                0      0.00%    100.00% # Number of instructions fetched each cycle (Total)
system.cpu.fetch.rateDist::min_value                0                       # Number of instructions fetched each cycle (Total)
system.cpu.fetch.rateDist::max_value                4                       # Number of instructions fetched each cycle (Total)
system.cpu.fetch.rateDist::total              2617677                       # Number of instructions fetched each cycle (Total)
system.cpu.fp_regfile_reads                    123838                       # number of floating regfile reads
system.cpu.fp_regfile_writes                    68482                       # number of floating regfile writes
system.cpu.fuPool.fu_ticks_busy::IntALU(0)    222808400                       # Total ticks fu was busy
system.cpu.fuPool.fu_ticks_busy::IntALU(1)    222808400                       # Total ticks fu was busy
system.cpu.fuPool.fu_ticks_busy::IntALU(2)    222808400                       # Total ticks fu was busy
system.cpu.fuPool.fu_ticks_busy::IntALU(3)    222808400                       # Total ticks fu was busy
system.cpu.fuPool.fu_ticks_busy::IntALU(4)    222808400                       # Total ticks fu was busy
system.cpu.fuPool.fu_ticks_busy::IntALU(5)    222808400                       # Total ticks fu was busy
system.cpu.fuPool.fu_ticks_busy::IntMultDiv(0)      8266400                       # Total ticks fu was busy
system.cpu.fuPool.fu_ticks_busy::IntMultDiv(1)      8265600                       # Total ticks fu was busy
system.cpu.fuPool.fu_ticks_busy::FP_ALU(0)       616400                       # Total ticks fu was busy
system.cpu.fuPool.fu_ticks_busy::FP_ALU(1)       616400                       # Total ticks fu was busy
system.cpu.fuPool.fu_ticks_busy::FP_ALU(2)       616400                       # Total ticks fu was busy
system.cpu.fuPool.fu_ticks_busy::FP_ALU(3)       616400                       # Total ticks fu was busy
system.cpu.fuPool.fu_ticks_busy::FP_MultDiv(0)            0                       # Total ticks fu was busy
system.cpu.fuPool.fu_ticks_busy::FP_MultDiv(1)            0                       # Total ticks fu was busy
system.cpu.fuPool.fu_ticks_busy::SIMD_Unit(0)      4644800                       # Total ticks fu was busy
system.cpu.fuPool.fu_ticks_busy::SIMD_Unit(1)      4624000                       # Total ticks fu was busy
system.cpu.fuPool.fu_ticks_busy::SIMD_Unit(2)      4596800                       # Total ticks fu was busy
system.cpu.fuPool.fu_ticks_busy::SIMD_Unit(3)      4634800                       # Total ticks fu was busy
system.cpu.fuPool.fu_ticks_busy::PredALU(0)            0                       # Total ticks fu was busy
system.cpu.fuPool.fu_ticks_busy::RdWrPort(0)     81338000                       # Total ticks fu was busy
system.cpu.fuPool.fu_ticks_busy::RdWrPort(1)     81349600                       # Total ticks fu was busy
system.cpu.fuPool.fu_ticks_busy::RdWrPort(2)     81287600                       # Total ticks fu was busy
system.cpu.fuPool.fu_ticks_busy::RdWrPort(3)     81266400                       # Total ticks fu was busy
system.cpu.fuPool.fu_ticks_busy::IprPort(0)            0                       # Total ticks fu was busy
system.cpu.fuPool.fu_ticks_busy::total     1699590000                       # Total ticks fu was busy
system.cpu.icache.prefetcher.num_hwpf_issued            0                       # number of hwpf issued
system.cpu.icache.prefetcher.pfBufferHit            0                       # number of redundant prefetches already in prefetch queue
system.cpu.icache.prefetcher.pfIdentified            0                       # number of prefetch candidates identified
system.cpu.icache.prefetcher.pfInCache              0                       # number of redundant prefetches already in cache/mshr dropped
system.cpu.icache.prefetcher.pfRemovedFull            0                       # number of prefetches dropped due to prefetch queue size
system.cpu.icache.prefetcher.pfSpanPage             0                       # number of prefetches that crossed the page
system.cpu.idleCycles                          165220                       # Total number of cycles that the CPU has spent unscheduled due to idling
system.cpu.iew.branchMispredicts                28276                       # Number of branch mispredicts detected at execute
system.cpu.iew.exec_branches                   390501                       # Number of branches executed
system.cpu.iew.exec_nop                             0                       # number of nop insts executed
system.cpu.iew.exec_rate                     1.524313                       # Inst execution rate
system.cpu.iew.exec_refs                       800481                       # number of memory reference insts executed
system.cpu.iew.exec_stores                     202020                       # Number of stores executed
system.cpu.iew.exec_swp                             0                       # number of swp insts executed
system.cpu.iew.iewBlockCycles                  693713                       # Number of cycles IEW is blocking
system.cpu.iew.iewDispLoadInsts                628104                       # Number of dispatched load instructions
system.cpu.iew.iewDispNonSpecInsts               1121                       # Number of dispatched non-speculative instructions
system.cpu.iew.iewDispSquashedInsts               541                       # Number of squashed instructions skipped by dispatch
system.cpu.iew.iewDispStoreInsts               212347                       # Number of dispatched store instructions
system.cpu.iew.iewDispatchedInsts             4587671                       # Number of instructions dispatched to IQ
system.cpu.iew.iewExecLoadInsts                598461                       # Number of load instructions executed
system.cpu.iew.iewExecSquashedInsts             33740                       # Number of squashed instructions skipped in execute
system.cpu.iew.iewExecutedInsts               4242006                       # Number of executed instructions
system.cpu.iew.iewIQFullEvents                   3277                       # Number of times the IQ has become full, causing a stall
system.cpu.iew.iewIdleCycles                        0                       # Number of cycles IEW is idle
system.cpu.iew.iewLSQFullEvents                  7842                       # Number of times the LSQ has become full, causing a stall
system.cpu.iew.iewSquashCycles                  23956                       # Number of cycles IEW is squashing
system.cpu.iew.iewUnblockCycles                 13981                       # Number of cycles IEW is unblocking
system.cpu.iew.lsq.thread0.blockedLoads             0                       # Number of blocked loads due to partial load-store forwarding
system.cpu.iew.lsq.thread0.cacheBlocked           610                       # Number of times an access to memory failed due to the cache being blocked
system.cpu.iew.lsq.thread0.forwLoads            40483                       # Number of loads that had data forwarded from stores
system.cpu.iew.lsq.thread0.ignoredResponses          242                       # Number of memory responses ignored because the instruction is squashed
system.cpu.iew.lsq.thread0.invAddrLoads             0                       # Number of loads ignored due to an invalid address
system.cpu.iew.lsq.thread0.invAddrSwpfs             0                       # Number of software prefetches ignored due to an invalid address
system.cpu.iew.lsq.thread0.memOrderViolation           75                       # Number of memory ordering violations
system.cpu.iew.lsq.thread0.rescheduledLoads            0                       # Number of loads that were rescheduled
system.cpu.iew.lsq.thread0.squashedLoads       112105                       # Number of loads squashed
system.cpu.iew.lsq.thread0.squashedStores        29337                       # Number of stores squashed
system.cpu.iew.memOrderViolationEvents             75                       # Number of memory order violations
system.cpu.iew.predictedNotTakenIncorrect        20253                       # Number of branches that were predicted not taken incorrectly
system.cpu.iew.predictedTakenIncorrect           8023                       # Number of branches that were predicted taken incorrectly
system.cpu.iew.wb_consumers                   5882871                       # num instructions consuming a value
system.cpu.iew.wb_count                       4220383                       # cumulative count of insts written-back
system.cpu.iew.wb_fanout                     0.569561                       # average fanout of values written-back
system.cpu.iew.wb_producers                   3350653                       # num instructions producing a value
system.cpu.iew.wb_rate                       1.516543                       # insts written-back per cycle
system.cpu.iew.wb_sent                        4227133                       # cumulative count of insts sent to commit
system.cpu.int_regfile_reads                  6572135                       # number of integer regfile reads
system.cpu.int_regfile_writes                 3631530                       # number of integer regfile writes
system.cpu.ipc                               0.765182                       # IPC: Instructions Per Cycle
system.cpu.ipc_total                         0.765182                       # IPC: Total IPC of All Threads
system.cpu.iq.FU_type_0::No_OpClass             26771      0.63%      0.63% # Type of FU issued
system.cpu.iq.FU_type_0::IntAlu               3342127     78.16%     78.79% # Type of FU issued
system.cpu.iq.FU_type_0::IntMult                 1533      0.04%     78.83% # Type of FU issued
system.cpu.iq.FU_type_0::IntDiv                 39797      0.93%     79.76% # Type of FU issued
system.cpu.iq.FU_type_0::FloatAdd                4640      0.11%     79.87% # Type of FU issued
system.cpu.iq.FU_type_0::FloatCmp                   0      0.00%     79.87% # Type of FU issued
system.cpu.iq.FU_type_0::FloatCvt                1524      0.04%     79.90% # Type of FU issued
system.cpu.iq.FU_type_0::FloatMult                  0      0.00%     79.90% # Type of FU issued
system.cpu.iq.FU_type_0::FloatMultAcc               0      0.00%     79.90% # Type of FU issued
system.cpu.iq.FU_type_0::FloatDiv                   0      0.00%     79.90% # Type of FU issued
system.cpu.iq.FU_type_0::FloatMisc                  0      0.00%     79.90% # Type of FU issued
system.cpu.iq.FU_type_0::FloatSqrt                  0      0.00%     79.90% # Type of FU issued
system.cpu.iq.FU_type_0::SimdAdd                 7010      0.16%     80.07% # Type of FU issued
system.cpu.iq.FU_type_0::SimdAddAcc                 0      0.00%     80.07% # Type of FU issued
system.cpu.iq.FU_type_0::SimdAlu                15143      0.35%     80.42% # Type of FU issued
system.cpu.iq.FU_type_0::SimdCmp                    0      0.00%     80.42% # Type of FU issued
system.cpu.iq.FU_type_0::SimdCvt                14288      0.33%     80.75% # Type of FU issued
system.cpu.iq.FU_type_0::SimdMisc                7317      0.17%     80.93% # Type of FU issued
system.cpu.iq.FU_type_0::SimdMult                   0      0.00%     80.93% # Type of FU issued
system.cpu.iq.FU_type_0::SimdMultAcc                0      0.00%     80.93% # Type of FU issued
system.cpu.iq.FU_type_0::SimdShift               2493      0.06%     80.98% # Type of FU issued
system.cpu.iq.FU_type_0::SimdShiftAcc               0      0.00%     80.98% # Type of FU issued
system.cpu.iq.FU_type_0::SimdDiv                    0      0.00%     80.98% # Type of FU issued
system.cpu.iq.FU_type_0::SimdSqrt                   0      0.00%     80.98% # Type of FU issued
system.cpu.iq.FU_type_0::SimdFloatAdd               0      0.00%     80.98% # Type of FU issued
system.cpu.iq.FU_type_0::SimdFloatAlu               0      0.00%     80.98% # Type of FU issued
system.cpu.iq.FU_type_0::SimdFloatCmp               0      0.00%     80.98% # Type of FU issued
system.cpu.iq.FU_type_0::SimdFloatCvt               0      0.00%     80.98% # Type of FU issued
system.cpu.iq.FU_type_0::SimdFloatDiv               0      0.00%     80.98% # Type of FU issued
system.cpu.iq.FU_type_0::SimdFloatMisc              0      0.00%     80.98% # Type of FU issued
system.cpu.iq.FU_type_0::SimdFloatMult              0      0.00%     80.98% # Type of FU issued
system.cpu.iq.FU_type_0::SimdFloatMultAcc            0      0.00%     80.98% # Type of FU issued
system.cpu.iq.FU_type_0::SimdFloatSqrt              0      0.00%     80.98% # Type of FU issued
system.cpu.iq.FU_type_0::SimdReduceAdd              0      0.00%     80.98% # Type of FU issued
system.cpu.iq.FU_type_0::SimdReduceAlu              0      0.00%     80.98% # Type of FU issued
system.cpu.iq.FU_type_0::SimdReduceCmp              0      0.00%     80.98% # Type of FU issued
system.cpu.iq.FU_type_0::SimdFloatReduceAdd            0      0.00%     80.98% # Type of FU issued
system.cpu.iq.FU_type_0::SimdFloatReduceCmp            0      0.00%     80.98% # Type of FU issued
system.cpu.iq.FU_type_0::SimdAes                    0      0.00%     80.98% # Type of FU issued
system.cpu.iq.FU_type_0::SimdAesMix                 0      0.00%     80.98% # Type of FU issued
system.cpu.iq.FU_type_0::SimdSha1Hash               0      0.00%     80.98% # Type of FU issued
system.cpu.iq.FU_type_0::SimdSha1Hash2              0      0.00%     80.98% # Type of FU issued
system.cpu.iq.FU_type_0::SimdSha256Hash             0      0.00%     80.98% # Type of FU issued
system.cpu.iq.FU_type_0::SimdSha256Hash2            0      0.00%     80.98% # Type of FU issued
system.cpu.iq.FU_type_0::SimdShaSigma2              0      0.00%     80.98% # Type of FU issued
system.cpu.iq.FU_type_0::SimdShaSigma3              0      0.00%     80.98% # Type of FU issued
system.cpu.iq.FU_type_0::SimdPredAlu                0      0.00%     80.98% # Type of FU issued
system.cpu.iq.FU_type_0::MemRead               582239     13.62%     94.60% # Type of FU issued
system.cpu.iq.FU_type_0::MemWrite              190602      4.46%     99.06% # Type of FU issued
system.cpu.iq.FU_type_0::FloatMemRead           26262      0.61%     99.67% # Type of FU issued
system.cpu.iq.FU_type_0::FloatMemWrite          14003      0.33%    100.00% # Type of FU issued
system.cpu.iq.FU_type_0::IprAccess                  0      0.00%    100.00% # Type of FU issued
system.cpu.iq.FU_type_0::InstPrefetch               0      0.00%    100.00% # Type of FU issued
system.cpu.iq.FU_type_0::total                4275749                       # Type of FU issued
system.cpu.iq.fp_alu_accesses                   93719                       # Number of floating point alu accesses
system.cpu.iq.fp_inst_queue_reads              188738                       # Number of floating instruction queue reads
system.cpu.iq.fp_inst_queue_wakeup_accesses        90216                       # Number of floating instruction queue wakeup accesses
system.cpu.iq.fp_inst_queue_writes             136108                       # Number of floating instruction queue writes
system.cpu.iq.fu_busy_cnt                           0                       # FU busy when requested
system.cpu.iq.fu_busy_rate                          0                       # FU busy rate (busy events/executed inst)
system.cpu.iq.fu_full::No_OpClass                   0                       # attempts to use FU when none available
system.cpu.iq.fu_full::IntAlu                       0                       # attempts to use FU when none available
system.cpu.iq.fu_full::IntMult                      0                       # attempts to use FU when none available
system.cpu.iq.fu_full::IntDiv                       0                       # attempts to use FU when none available
system.cpu.iq.fu_full::FloatAdd                     0                       # attempts to use FU when none available
system.cpu.iq.fu_full::FloatCmp                     0                       # attempts to use FU when none available
system.cpu.iq.fu_full::FloatCvt                     0                       # attempts to use FU when none available
system.cpu.iq.fu_full::FloatMult                    0                       # attempts to use FU when none available
system.cpu.iq.fu_full::FloatMultAcc                 0                       # attempts to use FU when none available
system.cpu.iq.fu_full::FloatDiv                     0                       # attempts to use FU when none available
system.cpu.iq.fu_full::FloatMisc                    0                       # attempts to use FU when none available
system.cpu.iq.fu_full::FloatSqrt                    0                       # attempts to use FU when none available
system.cpu.iq.fu_full::SimdAdd                      0                       # attempts to use FU when none available
system.cpu.iq.fu_full::SimdAddAcc                   0                       # attempts to use FU when none available
system.cpu.iq.fu_full::SimdAlu                      0                       # attempts to use FU when none available
system.cpu.iq.fu_full::SimdCmp                      0                       # attempts to use FU when none available
system.cpu.iq.fu_full::SimdCvt                      0                       # attempts to use FU when none available
system.cpu.iq.fu_full::SimdMisc                     0                       # attempts to use FU when none available
system.cpu.iq.fu_full::SimdMult                     0                       # attempts to use FU when none available
system.cpu.iq.fu_full::SimdMultAcc                  0                       # attempts to use FU when none available
system.cpu.iq.fu_full::SimdShift                    0                       # attempts to use FU when none available
system.cpu.iq.fu_full::SimdShiftAcc                 0                       # attempts to use FU when none available
system.cpu.iq.fu_full::SimdDiv                      0                       # attempts to use FU when none available
system.cpu.iq.fu_full::SimdSqrt                     0                       # attempts to use FU when none available
system.cpu.iq.fu_full::SimdFloatAdd                 0                       # attempts to use FU when none available
system.cpu.iq.fu_full::SimdFloatAlu                 0                       # attempts to use FU when none available
system.cpu.iq.fu_full::SimdFloatCmp                 0                       # attempts to use FU when none available
system.cpu.iq.fu_full::SimdFloatCvt                 0                       # attempts to use FU when none available
system.cpu.iq.fu_full::SimdFloatDiv                 0                       # attempts to use FU when none available
system.cpu.iq.fu_full::SimdFloatMisc                0                       # attempts to use FU when none available
system.cpu.iq.fu_full::SimdFloatMult                0                       # attempts to use FU when none available
system.cpu.iq.fu_full::SimdFloatMultAcc             0                       # attempts to use FU when none available
system.cpu.iq.fu_full::SimdFloatSqrt                0                       # attempts to use FU when none available
system.cpu.iq.fu_full::SimdReduceAdd                0                       # attempts to use FU when none available
system.cpu.iq.fu_full::SimdReduceAlu                0                       # attempts to use FU when none available
system.cpu.iq.fu_full::SimdReduceCmp                0                       # attempts to use FU when none available
system.cpu.iq.fu_full::SimdFloatReduceAdd            0                       # attempts to use FU when none available
system.cpu.iq.fu_full::SimdFloatReduceCmp            0                       # attempts to use FU when none available
system.cpu.iq.fu_full::SimdAes                      0                       # attempts to use FU when none available
system.cpu.iq.fu_full::SimdAesMix                   0                       # attempts to use FU when none available
system.cpu.iq.fu_full::SimdSha1Hash                 0                       # attempts to use FU when none available
system.cpu.iq.fu_full::SimdSha1Hash2                0                       # attempts to use FU when none available
system.cpu.iq.fu_full::SimdSha256Hash               0                       # attempts to use FU when none available
system.cpu.iq.fu_full::SimdSha256Hash2              0                       # attempts to use FU when none available
system.cpu.iq.fu_full::SimdShaSigma2                0                       # attempts to use FU when none available
system.cpu.iq.fu_full::SimdShaSigma3                0                       # attempts to use FU when none available
system.cpu.iq.fu_full::SimdPredAlu                  0                       # attempts to use FU when none available
system.cpu.iq.fu_full::MemRead                      0                       # attempts to use FU when none available
system.cpu.iq.fu_full::MemWrite                     0                       # attempts to use FU when none available
system.cpu.iq.fu_full::FloatMemRead                 0                       # attempts to use FU when none available
system.cpu.iq.fu_full::FloatMemWrite                0                       # attempts to use FU when none available
system.cpu.iq.fu_full::IprAccess                    0                       # attempts to use FU when none available
system.cpu.iq.fu_full::InstPrefetch                 0                       # attempts to use FU when none available
system.cpu.iq.int_alu_accesses                4155259                       # Number of integer alu accesses
system.cpu.iq.int_inst_queue_reads           10998331                       # Number of integer instruction queue reads
system.cpu.iq.int_inst_queue_wakeup_accesses      4130167                       # Number of integer instruction queue wakeup accesses
system.cpu.iq.int_inst_queue_writes           5315732                       # Number of integer instruction queue writes
system.cpu.iq.iqInstsAdded                    4586365                       # Number of instructions added to the IQ (excludes non-spec)
system.cpu.iq.iqInstsIssued                   4275749                       # Number of instructions issued
system.cpu.iq.iqNonSpecInstsAdded                1306                       # Number of non-speculative instructions added to the IQ
system.cpu.iq.iqSquashedInstsExamined          864095                       # Number of squashed instructions iterated over during squash; mainly for profiling
system.cpu.iq.iqSquashedInstsIssued             17897                       # Number of squashed instructions issued
system.cpu.iq.iqSquashedNonSpecRemoved            396                       # Number of squashed non-spec instructions that were removed
system.cpu.iq.iqSquashedOperandsExamined      1282699                       # Number of squashed operands that are examined and possibly removed from graph
system.cpu.iq.issued_per_cycle::samples       2617677                       # Number of insts issued each cycle
system.cpu.iq.issued_per_cycle::mean         1.633414                       # Number of insts issued each cycle
system.cpu.iq.issued_per_cycle::stdev        1.669582                       # Number of insts issued each cycle
system.cpu.iq.issued_per_cycle::underflows            0      0.00%      0.00% # Number of insts issued each cycle
system.cpu.iq.issued_per_cycle::0             1172775     44.80%     44.80% # Number of insts issued each cycle
system.cpu.iq.issued_per_cycle::1              178929      6.84%     51.64% # Number of insts issued each cycle
system.cpu.iq.issued_per_cycle::2              307928     11.76%     63.40% # Number of insts issued each cycle
system.cpu.iq.issued_per_cycle::3              351216     13.42%     76.82% # Number of insts issued each cycle
system.cpu.iq.issued_per_cycle::4              606829     23.18%    100.00% # Number of insts issued each cycle
system.cpu.iq.issued_per_cycle::overflows            0      0.00%    100.00% # Number of insts issued each cycle
system.cpu.iq.issued_per_cycle::min_value            0                       # Number of insts issued each cycle
system.cpu.iq.issued_per_cycle::max_value            4                       # Number of insts issued each cycle
system.cpu.iq.issued_per_cycle::total         2617677                       # Number of insts issued each cycle
system.cpu.iq.rate                           1.536438                       # Inst issue rate
system.cpu.iq.vec_alu_accesses                      0                       # Number of vector alu accesses
system.cpu.iq.vec_inst_queue_reads                  0                       # Number of vector instruction queue reads
system.cpu.iq.vec_inst_queue_wakeup_accesses            0                       # Number of vector instruction queue wakeup accesses
system.cpu.iq.vec_inst_queue_writes                 0                       # Number of vector instruction queue writes
system.cpu.itb.rdAccesses                           0                       # TLB accesses on read requests
system.cpu.itb.rdMisses                             0                       # TLB misses on read requests
system.cpu.itb.wrAccesses                      248054                       # TLB accesses on write requests
system.cpu.itb.wrMisses                           387                       # TLB misses on write requests
system.cpu.memDep0.conflictingLoads             12699                       # Number of conflicting loads.
system.cpu.memDep0.conflictingStores             4473                       # Number of conflicting stores.
system.cpu.memDep0.insertedLoads               628104                       # Number of loads inserted to the mem dependence unit.
system.cpu.memDep0.insertedStores              212347                       # Number of stores inserted to the mem dependence unit.
system.cpu.misc_regfile_reads                 1614875                       # number of misc regfile reads
system.cpu.misc_regfile_writes                    837                       # number of misc regfile writes
system.cpu.numCycles                          2782897                       # number of cpu cycles simulated
system.cpu.numWorkItemsCompleted                    0                       # number of work items this cpu completed
system.cpu.numWorkItemsStarted                      0                       # number of work items this cpu started
system.cpu.process.numSyscalls                     72                       # Number of system calls
system.cpu.rename.BlockCycles                  834332                       # Number of cycles rename is blocking
system.cpu.rename.CommittedMaps               5046903                       # Number of HB maps that are committed
system.cpu.rename.FullRegisterEvents               61                       # Number of times there has been no free registers
system.cpu.rename.IQFullEvents                  45062                       # Number of times rename has blocked due to IQ full
system.cpu.rename.IdleCycles                   357416                       # Number of cycles rename is idle
system.cpu.rename.LQFullEvents                  18641                       # Number of times rename has blocked due to LQ full
system.cpu.rename.ROBFullEvents                  4457                       # Number of times rename has blocked due to ROB full
system.cpu.rename.RenameLookups              12317264                       # Number of register rename lookups that rename has made
system.cpu.rename.RenamedInsts                4725358                       # Number of instructions processed by rename
system.cpu.rename.RenamedOperands             6404609                       # Number of destination operands rename has renamed
system.cpu.rename.RunCycles                   1201864                       # Number of cycles rename is running
system.cpu.rename.SQFullEvents                  77204                       # Number of times rename has blocked due to SQ full
system.cpu.rename.SquashCycles                  23956                       # Number of cycles rename is squashing
system.cpu.rename.UnblockCycles                177733                       # Number of cycles rename is unblocking
system.cpu.rename.UndoneMaps                  1357683                       # Number of HB maps that are undone due to squashing
system.cpu.rename.fp_rename_lookups            160422                       # Number of floating rename lookups
system.cpu.rename.int_rename_lookups          7488958                       # Number of integer rename lookups
system.cpu.rename.serializeStallCycles          22376                       # count of cycles rename stalled for serializing inst
system.cpu.rename.serializingInsts               1077                       # count of serializing insts renamed
system.cpu.rename.skidInsts                    204105                       # count of insts added to the skid buffer
system.cpu.rename.tempSerializingInsts           1144                       # count of temporary serializing insts renamed
system.cpu.rob.rob_reads                      6347536                       # The number of ROB reads
system.cpu.rob.rob_writes                     9412492                       # The number of ROB writes
system.cpu.timesIdled                            1758                       # Number of times that the entire CPU went into an idle state and unscheduled itself
system.l2bus.snoop_filter.hit_multi_requests           10                       # Number of requests hitting in the snoop filter with multiple (>1) holders of the requested data.
system.l2bus.snoop_filter.hit_multi_snoops            0                       # Number of snoops hitting in the snoop filter with multiple (>1) holders of the requested data.
system.l2bus.snoop_filter.hit_single_requests        18714                       # Number of requests hitting in the snoop filter with a single holder of the requested data.
system.l2bus.snoop_filter.hit_single_snoops          442                       # Number of snoops hitting in the snoop filter with a single holder of the requested data.
system.l2bus.snoop_filter.tot_requests          38708                       # Total number of requests made to the snoop filter.
system.l2bus.snoop_filter.tot_snoops              442                       # Total number of snoops made to the snoop filter.
system.l2cache.prefetcher.num_hwpf_issued          657                       # number of hwpf issued
system.l2cache.prefetcher.pfBufferHit               0                       # number of redundant prefetches already in prefetch queue
system.l2cache.prefetcher.pfIdentified            657                       # number of prefetch candidates identified
system.l2cache.prefetcher.pfInCache                 0                       # number of redundant prefetches already in cache/mshr dropped
system.l2cache.prefetcher.pfRemovedFull             0                       # number of prefetches dropped due to prefetch queue size
system.l2cache.prefetcher.pfSpanPage               83                       # number of prefetches that crossed the page
system.membus.snoop_filter.hit_multi_requests            0                       # Number of requests hitting in the snoop filter with multiple (>1) holders of the requested data.
system.membus.snoop_filter.hit_multi_snoops            0                       # Number of snoops hitting in the snoop filter with multiple (>1) holders of the requested data.
system.membus.snoop_filter.hit_single_requests         9492                       # Number of requests hitting in the snoop filter with a single holder of the requested data.
system.membus.snoop_filter.hit_single_snoops            0                       # Number of snoops hitting in the snoop filter with a single holder of the requested data.
system.membus.snoop_filter.tot_requests         23110                       # Total number of requests made to the snoop filter.
system.membus.snoop_filter.tot_snoops               0                       # Total number of snoops made to the snoop filter.
system.membus.pwrStateResidencyTicks::UNDEFINED   1113158400                       # Cumulative time (in ticks) in various power states
system.membus.trans_dist::ReadResp              12301                       # Transaction distribution
system.membus.trans_dist::WritebackDirty         1351                       # Transaction distribution
system.membus.trans_dist::CleanEvict             8141                       # Transaction distribution
system.membus.trans_dist::ReadExReq              1317                       # Transaction distribution
system.membus.trans_dist::ReadExResp             1317                       # Transaction distribution
system.membus.trans_dist::ReadSharedReq         12301                       # Transaction distribution
system.membus.pkt_count_system.l2cache.mem_side::system.mem_ctrl.port        36728                       # Packet count per connected master and slave (bytes)
system.membus.pkt_count_system.l2cache.mem_side::total        36728                       # Packet count per connected master and slave (bytes)
system.membus.pkt_count::total                  36728                       # Packet count per connected master and slave (bytes)
system.membus.pkt_size_system.l2cache.mem_side::system.mem_ctrl.port       958016                       # Cumulative packet size per connected master and slave (bytes)
system.membus.pkt_size_system.l2cache.mem_side::total       958016                       # Cumulative packet size per connected master and slave (bytes)
system.membus.pkt_size::total                  958016                       # Cumulative packet size per connected master and slave (bytes)
system.membus.snoops                                0                       # Total snoops (count)
system.membus.snoopTraffic                          0                       # Total snoop traffic (bytes)
system.membus.snoop_fanout::samples             13618                       # Request fanout histogram
system.membus.snoop_fanout::mean                    0                       # Request fanout histogram
system.membus.snoop_fanout::stdev                   0                       # Request fanout histogram
system.membus.snoop_fanout::underflows              0      0.00%      0.00% # Request fanout histogram
system.membus.snoop_fanout::0                   13618    100.00%    100.00% # Request fanout histogram
system.membus.snoop_fanout::1                       0      0.00%    100.00% # Request fanout histogram
system.membus.snoop_fanout::overflows               0      0.00%    100.00% # Request fanout histogram
system.membus.snoop_fanout::min_value               0                       # Request fanout histogram
system.membus.snoop_fanout::max_value               0                       # Request fanout histogram
system.membus.snoop_fanout::total               13618                       # Request fanout histogram
system.membus.reqLayer2.occupancy            11428120                       # Layer occupancy (ticks)
system.membus.reqLayer2.utilization               1.0                       # Layer utilization (%)
system.membus.respLayer0.occupancy           29551480                       # Layer occupancy (ticks)
system.membus.respLayer0.utilization              2.7                       # Layer utilization (%)
system.l2bus.pwrStateResidencyTicks::UNDEFINED   1113158400                       # Cumulative time (in ticks) in various power states
system.l2bus.trans_dist::ReadResp               17934                       # Transaction distribution
system.l2bus.trans_dist::WritebackDirty          4168                       # Transaction distribution
system.l2bus.trans_dist::CleanEvict             24131                       # Transaction distribution
system.l2bus.trans_dist::HardPFReq                978                       # Transaction distribution
system.l2bus.trans_dist::ReadExReq               2060                       # Transaction distribution
system.l2bus.trans_dist::ReadExResp              2060                       # Transaction distribution
system.l2bus.trans_dist::ReadSharedReq          17934                       # Transaction distribution
system.l2bus.pkt_count_system.cpu.icache.mem_side::system.l2cache.cpu_side         8967                       # Packet count per connected master and slave (bytes)
system.l2bus.pkt_count_system.cpu.dcache.mem_side::system.l2cache.cpu_side        49733                       # Packet count per connected master and slave (bytes)
system.l2bus.pkt_count::total                   58700                       # Packet count per connected master and slave (bytes)
system.l2bus.pkt_size_system.cpu.icache.mem_side::system.l2cache.cpu_side       196672                       # Cumulative packet size per connected master and slave (bytes)
system.l2bus.pkt_size_system.cpu.dcache.mem_side::system.l2cache.cpu_side      1263104                       # Cumulative packet size per connected master and slave (bytes)
system.l2bus.pkt_size::total                  1459776                       # Cumulative packet size per connected master and slave (bytes)
system.l2bus.snoops                             10565                       # Total snoops (count)
system.l2bus.snoopTraffic                       86592                       # Total snoop traffic (bytes)
system.l2bus.snoop_fanout::samples              30557                       # Request fanout histogram
system.l2bus.snoop_fanout::mean              0.014792                       # Request fanout histogram
system.l2bus.snoop_fanout::stdev             0.120722                       # Request fanout histogram
system.l2bus.snoop_fanout::underflows               0      0.00%      0.00% # Request fanout histogram
system.l2bus.snoop_fanout::0                    30105     98.52%     98.52% # Request fanout histogram
system.l2bus.snoop_fanout::1                      452      1.48%    100.00% # Request fanout histogram
system.l2bus.snoop_fanout::2                        0      0.00%    100.00% # Request fanout histogram
system.l2bus.snoop_fanout::overflows                0      0.00%    100.00% # Request fanout histogram
system.l2bus.snoop_fanout::min_value                0                       # Request fanout histogram
system.l2bus.snoop_fanout::max_value                1                       # Request fanout histogram
system.l2bus.snoop_fanout::total                30557                       # Request fanout histogram
system.l2bus.respLayer1.occupancy            20304795                       # Layer occupancy (ticks)
system.l2bus.respLayer1.utilization               1.8                       # Layer utilization (%)
system.l2bus.reqLayer0.occupancy             19142426                       # Layer occupancy (ticks)
system.l2bus.reqLayer0.utilization                1.7                       # Layer utilization (%)
system.l2bus.respLayer0.occupancy             3690399                       # Layer occupancy (ticks)
system.l2bus.respLayer0.utilization               0.3                       # Layer utilization (%)
system.clk_domain.clock                           400                       # Clock period in ticks
system.clk_domain.voltage_domain.voltage            1                       # Voltage in Volts
system.cpu.pwrStateResidencyTicks::ON      1113158400                       # Cumulative time (in ticks) in various power states
system.cpu.icache.pwrStateResidencyTicks::UNDEFINED   1113158400                       # Cumulative time (in ticks) in various power states
system.cpu.icache.demand_hits::.cpu.inst       244101                       # number of demand (read+write) hits
system.cpu.icache.demand_hits::total           244101                       # number of demand (read+write) hits
system.cpu.icache.overall_hits::.cpu.inst       244101                       # number of overall hits
system.cpu.icache.overall_hits::total          244101                       # number of overall hits
system.cpu.icache.demand_misses::.cpu.inst         3824                       # number of demand (read+write) misses
system.cpu.icache.demand_misses::total           3824                       # number of demand (read+write) misses
system.cpu.icache.overall_misses::.cpu.inst         3824                       # number of overall misses
system.cpu.icache.overall_misses::total          3824                       # number of overall misses
system.cpu.icache.demand_miss_latency::.cpu.inst    182021600                       # number of demand (read+write) miss cycles
system.cpu.icache.demand_miss_latency::total    182021600                       # number of demand (read+write) miss cycles
system.cpu.icache.overall_miss_latency::.cpu.inst    182021600                       # number of overall miss cycles
system.cpu.icache.overall_miss_latency::total    182021600                       # number of overall miss cycles
system.cpu.icache.demand_accesses::.cpu.inst       247925                       # number of demand (read+write) accesses
system.cpu.icache.demand_accesses::total       247925                       # number of demand (read+write) accesses
system.cpu.icache.overall_accesses::.cpu.inst       247925                       # number of overall (read+write) accesses
system.cpu.icache.overall_accesses::total       247925                       # number of overall (read+write) accesses
system.cpu.icache.demand_miss_rate::.cpu.inst     0.015424                       # miss rate for demand accesses
system.cpu.icache.demand_miss_rate::total     0.015424                       # miss rate for demand accesses
system.cpu.icache.overall_miss_rate::.cpu.inst     0.015424                       # miss rate for overall accesses
system.cpu.icache.overall_miss_rate::total     0.015424                       # miss rate for overall accesses
system.cpu.icache.demand_avg_miss_latency::.cpu.inst 47599.790795                       # average overall miss latency
system.cpu.icache.demand_avg_miss_latency::total 47599.790795                       # average overall miss latency
system.cpu.icache.overall_avg_miss_latency::.cpu.inst 47599.790795                       # average overall miss latency
system.cpu.icache.overall_avg_miss_latency::total 47599.790795                       # average overall miss latency
system.cpu.icache.blocked_cycles::no_mshrs          169                       # number of cycles access was blocked
system.cpu.icache.blocked_cycles::no_targets            0                       # number of cycles access was blocked
system.cpu.icache.blocked::no_mshrs                 9                       # number of cycles access was blocked
system.cpu.icache.blocked::no_targets               0                       # number of cycles access was blocked
system.cpu.icache.avg_blocked_cycles::no_mshrs    18.777778                       # average number of cycles each access was blocked
system.cpu.icache.avg_blocked_cycles::no_targets          nan                       # average number of cycles each access was blocked
system.cpu.icache.demand_mshr_hits::.cpu.inst          748                       # number of demand (read+write) MSHR hits
system.cpu.icache.demand_mshr_hits::total          748                       # number of demand (read+write) MSHR hits
system.cpu.icache.overall_mshr_hits::.cpu.inst          748                       # number of overall MSHR hits
system.cpu.icache.overall_mshr_hits::total          748                       # number of overall MSHR hits
system.cpu.icache.demand_mshr_misses::.cpu.inst         3076                       # number of demand (read+write) MSHR misses
system.cpu.icache.demand_mshr_misses::total         3076                       # number of demand (read+write) MSHR misses
system.cpu.icache.overall_mshr_misses::.cpu.inst         3076                       # number of overall MSHR misses
system.cpu.icache.overall_mshr_misses::total         3076                       # number of overall MSHR misses
system.cpu.icache.demand_mshr_miss_latency::.cpu.inst    146775200                       # number of demand (read+write) MSHR miss cycles
system.cpu.icache.demand_mshr_miss_latency::total    146775200                       # number of demand (read+write) MSHR miss cycles
system.cpu.icache.overall_mshr_miss_latency::.cpu.inst    146775200                       # number of overall MSHR miss cycles
system.cpu.icache.overall_mshr_miss_latency::total    146775200                       # number of overall MSHR miss cycles
system.cpu.icache.demand_mshr_miss_rate::.cpu.inst     0.012407                       # mshr miss rate for demand accesses
system.cpu.icache.demand_mshr_miss_rate::total     0.012407                       # mshr miss rate for demand accesses
system.cpu.icache.overall_mshr_miss_rate::.cpu.inst     0.012407                       # mshr miss rate for overall accesses
system.cpu.icache.overall_mshr_miss_rate::total     0.012407                       # mshr miss rate for overall accesses
system.cpu.icache.demand_avg_mshr_miss_latency::.cpu.inst 47716.254876                       # average overall mshr miss latency
system.cpu.icache.demand_avg_mshr_miss_latency::total 47716.254876                       # average overall mshr miss latency
system.cpu.icache.overall_avg_mshr_miss_latency::.cpu.inst 47716.254876                       # average overall mshr miss latency
system.cpu.icache.overall_avg_mshr_miss_latency::total 47716.254876                       # average overall mshr miss latency
system.cpu.icache.replacements                   2819                       # number of replacements
system.cpu.icache.ReadReq_hits::.cpu.inst       244101                       # number of ReadReq hits
system.cpu.icache.ReadReq_hits::total          244101                       # number of ReadReq hits
system.cpu.icache.ReadReq_misses::.cpu.inst         3824                       # number of ReadReq misses
system.cpu.icache.ReadReq_misses::total          3824                       # number of ReadReq misses
system.cpu.icache.ReadReq_miss_latency::.cpu.inst    182021600                       # number of ReadReq miss cycles
system.cpu.icache.ReadReq_miss_latency::total    182021600                       # number of ReadReq miss cycles
system.cpu.icache.ReadReq_accesses::.cpu.inst       247925                       # number of ReadReq accesses(hits+misses)
system.cpu.icache.ReadReq_accesses::total       247925                       # number of ReadReq accesses(hits+misses)
system.cpu.icache.ReadReq_miss_rate::.cpu.inst     0.015424                       # miss rate for ReadReq accesses
system.cpu.icache.ReadReq_miss_rate::total     0.015424                       # miss rate for ReadReq accesses
system.cpu.icache.ReadReq_avg_miss_latency::.cpu.inst 47599.790795                       # average ReadReq miss latency
system.cpu.icache.ReadReq_avg_miss_latency::total 47599.790795                       # average ReadReq miss latency
system.cpu.icache.ReadReq_mshr_hits::.cpu.inst          748                       # number of ReadReq MSHR hits
system.cpu.icache.ReadReq_mshr_hits::total          748                       # number of ReadReq MSHR hits
system.cpu.icache.ReadReq_mshr_misses::.cpu.inst         3076                       # number of ReadReq MSHR misses
system.cpu.icache.ReadReq_mshr_misses::total         3076                       # number of ReadReq MSHR misses
system.cpu.icache.ReadReq_mshr_miss_latency::.cpu.inst    146775200                       # number of ReadReq MSHR miss cycles
system.cpu.icache.ReadReq_mshr_miss_latency::total    146775200                       # number of ReadReq MSHR miss cycles
system.cpu.icache.ReadReq_mshr_miss_rate::.cpu.inst     0.012407                       # mshr miss rate for ReadReq accesses
system.cpu.icache.ReadReq_mshr_miss_rate::total     0.012407                       # mshr miss rate for ReadReq accesses
system.cpu.icache.ReadReq_avg_mshr_miss_latency::.cpu.inst 47716.254876                       # average ReadReq mshr miss latency
system.cpu.icache.ReadReq_avg_mshr_miss_latency::total 47716.254876                       # average ReadReq mshr miss latency
system.cpu.icache.prefetcher.pwrStateResidencyTicks::UNDEFINED   1113158400                       # Cumulative time (in ticks) in various power states
system.cpu.icache.tags.pwrStateResidencyTicks::UNDEFINED   1113158400                       # Cumulative time (in ticks) in various power states
system.cpu.icache.tags.tagsinuse           253.500958                       # Cycle average of tags in use
system.cpu.icache.tags.total_refs              229559                       # Total number of references to valid blocks.
system.cpu.icache.tags.sampled_refs              2819                       # Sample count of references to valid blocks.
system.cpu.icache.tags.avg_refs             81.432778                       # Average number of references to valid blocks.
system.cpu.icache.tags.warmup_cycle             66400                       # Cycle when the warmup percentage was hit.
system.cpu.icache.tags.occ_blocks::.cpu.inst   253.500958                       # Average occupied blocks per requestor
system.cpu.icache.tags.occ_percent::.cpu.inst     0.990238                       # Average percentage of cache occupancy
system.cpu.icache.tags.occ_percent::total     0.990238                       # Average percentage of cache occupancy
system.cpu.icache.tags.occ_task_id_blocks::1024          256                       # Occupied blocks per task id
system.cpu.icache.tags.age_task_id_blocks_1024::0           77                       # Occupied blocks per task id
system.cpu.icache.tags.age_task_id_blocks_1024::1          153                       # Occupied blocks per task id
system.cpu.icache.tags.age_task_id_blocks_1024::2           23                       # Occupied blocks per task id
system.cpu.icache.tags.age_task_id_blocks_1024::3            3                       # Occupied blocks per task id
system.cpu.icache.tags.occ_task_id_percent::1024            1                       # Percentage of cache occupancy per task id
system.cpu.icache.tags.tag_accesses            498925                       # Number of tag accesses
system.cpu.icache.tags.data_accesses           498925                       # Number of data accesses
system.cpu.dtb.walker.pwrStateResidencyTicks::UNDEFINED   1113158400                       # Cumulative time (in ticks) in various power states
system.cpu.interrupts.clk_domain.clock           6400                       # Clock period in ticks
system.cpu.itb.walker.pwrStateResidencyTicks::UNDEFINED   1113158400                       # Cumulative time (in ticks) in various power states
system.cpu.dcache.pwrStateResidencyTicks::UNDEFINED   1113158400                       # Cumulative time (in ticks) in various power states
system.cpu.dcache.demand_hits::.cpu.data       702876                       # number of demand (read+write) hits
system.cpu.dcache.demand_hits::total           702876                       # number of demand (read+write) hits
system.cpu.dcache.overall_hits::.cpu.data       702876                       # number of overall hits
system.cpu.dcache.overall_hits::total          702876                       # number of overall hits
system.cpu.dcache.demand_misses::.cpu.data        35288                       # number of demand (read+write) misses
system.cpu.dcache.demand_misses::total          35288                       # number of demand (read+write) misses
system.cpu.dcache.overall_misses::.cpu.data        35288                       # number of overall misses
system.cpu.dcache.overall_misses::total         35288                       # number of overall misses
system.cpu.dcache.demand_miss_latency::.cpu.data   1715390399                       # number of demand (read+write) miss cycles
system.cpu.dcache.demand_miss_latency::total   1715390399                       # number of demand (read+write) miss cycles
system.cpu.dcache.overall_miss_latency::.cpu.data   1715390399                       # number of overall miss cycles
system.cpu.dcache.overall_miss_latency::total   1715390399                       # number of overall miss cycles
system.cpu.dcache.demand_accesses::.cpu.data       738164                       # number of demand (read+write) accesses
system.cpu.dcache.demand_accesses::total       738164                       # number of demand (read+write) accesses
system.cpu.dcache.overall_accesses::.cpu.data       738164                       # number of overall (read+write) accesses
system.cpu.dcache.overall_accesses::total       738164                       # number of overall (read+write) accesses
system.cpu.dcache.demand_miss_rate::.cpu.data     0.047805                       # miss rate for demand accesses
system.cpu.dcache.demand_miss_rate::total     0.047805                       # miss rate for demand accesses
system.cpu.dcache.overall_miss_rate::.cpu.data     0.047805                       # miss rate for overall accesses
system.cpu.dcache.overall_miss_rate::total     0.047805                       # miss rate for overall accesses
system.cpu.dcache.demand_avg_miss_latency::.cpu.data 48611.153905                       # average overall miss latency
system.cpu.dcache.demand_avg_miss_latency::total 48611.153905                       # average overall miss latency
system.cpu.dcache.overall_avg_miss_latency::.cpu.data 48611.153905                       # average overall miss latency
system.cpu.dcache.overall_avg_miss_latency::total 48611.153905                       # average overall miss latency
system.cpu.dcache.blocked_cycles::no_mshrs        29914                       # number of cycles access was blocked
system.cpu.dcache.blocked_cycles::no_targets           98                       # number of cycles access was blocked
system.cpu.dcache.blocked::no_mshrs               768                       # number of cycles access was blocked
system.cpu.dcache.blocked::no_targets               1                       # number of cycles access was blocked
system.cpu.dcache.avg_blocked_cycles::no_mshrs    38.950521                       # average number of cycles each access was blocked
system.cpu.dcache.avg_blocked_cycles::no_targets           98                       # average number of cycles each access was blocked
system.cpu.dcache.unused_prefetches              1743                       # number of HardPF blocks evicted w/o reference
system.cpu.dcache.writebacks::.writebacks         2817                       # number of writebacks
system.cpu.dcache.writebacks::total              2817                       # number of writebacks
system.cpu.dcache.demand_mshr_hits::.cpu.data        22660                       # number of demand (read+write) MSHR hits
system.cpu.dcache.demand_mshr_hits::total        22660                       # number of demand (read+write) MSHR hits
system.cpu.dcache.overall_mshr_hits::.cpu.data        22660                       # number of overall MSHR hits
system.cpu.dcache.overall_mshr_hits::total        22660                       # number of overall MSHR hits
system.cpu.dcache.demand_mshr_misses::.cpu.data        12628                       # number of demand (read+write) MSHR misses
system.cpu.dcache.demand_mshr_misses::total        12628                       # number of demand (read+write) MSHR misses
system.cpu.dcache.overall_mshr_misses::.cpu.data        12628                       # number of overall MSHR misses
system.cpu.dcache.overall_mshr_misses::.cpu.dcache.prefetcher         4291                       # number of overall MSHR misses
system.cpu.dcache.overall_mshr_misses::total        16919                       # number of overall MSHR misses
system.cpu.dcache.demand_mshr_miss_latency::.cpu.data    581003599                       # number of demand (read+write) MSHR miss cycles
system.cpu.dcache.demand_mshr_miss_latency::total    581003599                       # number of demand (read+write) MSHR miss cycles
system.cpu.dcache.overall_mshr_miss_latency::.cpu.data    581003599                       # number of overall MSHR miss cycles
system.cpu.dcache.overall_mshr_miss_latency::.cpu.dcache.prefetcher    247627100                       # number of overall MSHR miss cycles
system.cpu.dcache.overall_mshr_miss_latency::total    828630699                       # number of overall MSHR miss cycles
system.cpu.dcache.demand_mshr_miss_rate::.cpu.data     0.017107                       # mshr miss rate for demand accesses
system.cpu.dcache.demand_mshr_miss_rate::total     0.017107                       # mshr miss rate for demand accesses
system.cpu.dcache.overall_mshr_miss_rate::.cpu.data     0.017107                       # mshr miss rate for overall accesses
system.cpu.dcache.overall_mshr_miss_rate::.cpu.dcache.prefetcher          inf                       # mshr miss rate for overall accesses
system.cpu.dcache.overall_mshr_miss_rate::total     0.022920                       # mshr miss rate for overall accesses
system.cpu.dcache.demand_avg_mshr_miss_latency::.cpu.data 46009.154181                       # average overall mshr miss latency
system.cpu.dcache.demand_avg_mshr_miss_latency::total 46009.154181                       # average overall mshr miss latency
system.cpu.dcache.overall_avg_mshr_miss_latency::.cpu.data 46009.154181                       # average overall mshr miss latency
system.cpu.dcache.overall_avg_mshr_miss_latency::.cpu.dcache.prefetcher 57708.482871                       # average overall mshr miss latency
system.cpu.dcache.overall_avg_mshr_miss_latency::total 48976.340150                       # average overall mshr miss latency
system.cpu.dcache.replacements                  15895                       # number of replacements
system.cpu.dcache.ReadReq_hits::.cpu.data       521961                       # number of ReadReq hits
system.cpu.dcache.ReadReq_hits::total          521961                       # number of ReadReq hits
system.cpu.dcache.ReadReq_misses::.cpu.data        33184                       # number of ReadReq misses
system.cpu.dcache.ReadReq_misses::total         33184                       # number of ReadReq misses
system.cpu.dcache.ReadReq_miss_latency::.cpu.data   1611432000                       # number of ReadReq miss cycles
system.cpu.dcache.ReadReq_miss_latency::total   1611432000                       # number of ReadReq miss cycles
system.cpu.dcache.ReadReq_accesses::.cpu.data       555145                       # number of ReadReq accesses(hits+misses)
system.cpu.dcache.ReadReq_accesses::total       555145                       # number of ReadReq accesses(hits+misses)
system.cpu.dcache.ReadReq_miss_rate::.cpu.data     0.059775                       # miss rate for ReadReq accesses
system.cpu.dcache.ReadReq_miss_rate::total     0.059775                       # miss rate for ReadReq accesses
system.cpu.dcache.ReadReq_avg_miss_latency::.cpu.data 48560.511090                       # average ReadReq miss latency
system.cpu.dcache.ReadReq_avg_miss_latency::total 48560.511090                       # average ReadReq miss latency
system.cpu.dcache.ReadReq_mshr_hits::.cpu.data        22616                       # number of ReadReq MSHR hits
system.cpu.dcache.ReadReq_mshr_hits::total        22616                       # number of ReadReq MSHR hits
system.cpu.dcache.ReadReq_mshr_misses::.cpu.data        10568                       # number of ReadReq MSHR misses
system.cpu.dcache.ReadReq_mshr_misses::total        10568                       # number of ReadReq MSHR misses
system.cpu.dcache.ReadReq_mshr_miss_latency::.cpu.data    480537600                       # number of ReadReq MSHR miss cycles
system.cpu.dcache.ReadReq_mshr_miss_latency::total    480537600                       # number of ReadReq MSHR miss cycles
system.cpu.dcache.ReadReq_mshr_miss_rate::.cpu.data     0.019036                       # mshr miss rate for ReadReq accesses
system.cpu.dcache.ReadReq_mshr_miss_rate::total     0.019036                       # mshr miss rate for ReadReq accesses
system.cpu.dcache.ReadReq_avg_mshr_miss_latency::.cpu.data 45471.006813                       # average ReadReq mshr miss latency
system.cpu.dcache.ReadReq_avg_mshr_miss_latency::total 45471.006813                       # average ReadReq mshr miss latency
system.cpu.dcache.WriteReq_hits::.cpu.data       180915                       # number of WriteReq hits
system.cpu.dcache.WriteReq_hits::total         180915                       # number of WriteReq hits
system.cpu.dcache.WriteReq_misses::.cpu.data         2104                       # number of WriteReq misses
system.cpu.dcache.WriteReq_misses::total         2104                       # number of WriteReq misses
system.cpu.dcache.WriteReq_miss_latency::.cpu.data    103958399                       # number of WriteReq miss cycles
system.cpu.dcache.WriteReq_miss_latency::total    103958399                       # number of WriteReq miss cycles
system.cpu.dcache.WriteReq_accesses::.cpu.data       183019                       # number of WriteReq accesses(hits+misses)
system.cpu.dcache.WriteReq_accesses::total       183019                       # number of WriteReq accesses(hits+misses)
system.cpu.dcache.WriteReq_miss_rate::.cpu.data     0.011496                       # miss rate for WriteReq accesses
system.cpu.dcache.WriteReq_miss_rate::total     0.011496                       # miss rate for WriteReq accesses
system.cpu.dcache.WriteReq_avg_miss_latency::.cpu.data 49409.885456                       # average WriteReq miss latency
system.cpu.dcache.WriteReq_avg_miss_latency::total 49409.885456                       # average WriteReq miss latency
system.cpu.dcache.WriteReq_mshr_hits::.cpu.data           44                       # number of WriteReq MSHR hits
system.cpu.dcache.WriteReq_mshr_hits::total           44                       # number of WriteReq MSHR hits
system.cpu.dcache.WriteReq_mshr_misses::.cpu.data         2060                       # number of WriteReq MSHR misses
system.cpu.dcache.WriteReq_mshr_misses::total         2060                       # number of WriteReq MSHR misses
[...]
system.l2cache.demand_mshr_miss_rate::.cpu.data     0.490323                       # mshr miss rate for demand accesses
system.l2cache.demand_mshr_miss_rate::.cpu.dcache.prefetcher     0.653846                       # mshr miss rate for demand accesses
system.l2cache.demand_mshr_miss_rate::total     0.437500                       # mshr miss rate for demand accesses
system.l2cache.overall_mshr_miss_rate::.cpu.inst     0.399449                       # mshr miss rate for overall accesses
system.l2cache.overall_mshr_miss_rate::.cpu.data     0.490323                       # mshr miss rate for overall accesses
system.l2cache.overall_mshr_miss_rate::.cpu.dcache.prefetcher     0.653846                       # mshr miss rate for overall accesses
system.l2cache.overall_mshr_miss_rate::.l2cache.prefetcher          inf                       # mshr miss rate for overall accesses
system.l2cache.overall_mshr_miss_rate::total     0.441176                       # mshr miss rate for overall accesses
system.l2cache.demand_avg_mshr_miss_latency::.cpu.inst 59782.068966                       # average overall mshr miss latency
system.l2cache.demand_avg_mshr_miss_latency::.cpu.data 58189.473684                       # average overall mshr miss latency
system.l2cache.demand_avg_mshr_miss_latency::.cpu.dcache.prefetcher 57363.705882                       # average overall mshr miss latency
system.l2cache.demand_avg_mshr_miss_latency::total 59100.768908                       # average overall mshr miss latency
system.l2cache.overall_avg_mshr_miss_latency::.cpu.inst 59782.068966                       # average overall mshr miss latency
system.l2cache.overall_avg_mshr_miss_latency::.cpu.data 58189.473684                       # average overall mshr miss latency
system.l2cache.overall_avg_mshr_miss_latency::.cpu.dcache.prefetcher 57363.705882                       # average overall mshr miss latency
system.l2cache.overall_avg_mshr_miss_latency::.l2cache.prefetcher 74598.500000                       # average overall mshr miss latency
system.l2cache.overall_avg_mshr_miss_latency::total 59229.916667                       # average overall mshr miss latency
system.l2cache.replacements                       245                       # number of replacements
system.l2cache.WritebackDirty_hits::.writebacks           69                       # number of WritebackDirty hits
system.l2cache.WritebackDirty_hits::total           69                       # number of WritebackDirty hits
system.l2cache.WritebackDirty_accesses::.writebacks           69                       # number of WritebackDirty accesses(hits+misses)
system.l2cache.WritebackDirty_accesses::total           69                       # number of WritebackDirty accesses(hits+misses)
system.l2cache.CleanEvict_mshr_misses::.writebacks           12                       # number of CleanEvict MSHR misses
system.l2cache.CleanEvict_mshr_misses::total           12                       # number of CleanEvict MSHR misses
system.l2cache.CleanEvict_mshr_miss_rate::.writebacks          inf                       # mshr miss rate for CleanEvict accesses
system.l2cache.CleanEvict_mshr_miss_rate::total          inf                       # mshr miss rate for CleanEvict accesses
system.l2cache.HardPFReq_mshr_misses::.l2cache.prefetcher            2                       # number of HardPFReq MSHR misses
system.l2cache.HardPFReq_mshr_misses::total            2                       # number of HardPFReq MSHR misses
system.l2cache.HardPFReq_mshr_miss_latency::.l2cache.prefetcher       149197                       # number of HardPFReq MSHR miss cycles
system.l2cache.HardPFReq_mshr_miss_latency::total       149197                       # number of HardPFReq MSHR miss cycles
system.l2cache.HardPFReq_mshr_miss_rate::.l2cache.prefetcher          inf                       # mshr miss rate for HardPFReq accesses
system.l2cache.HardPFReq_mshr_miss_rate::total          inf                       # mshr miss rate for HardPFReq accesses
system.l2cache.HardPFReq_avg_mshr_miss_latency::.l2cache.prefetcher 74598.500000                       # average HardPFReq mshr miss latency
system.l2cache.HardPFReq_avg_mshr_miss_latency::total 74598.500000                       # average HardPFReq mshr miss latency
system.l2cache.ReadExReq_hits::.cpu.data            3                       # number of ReadExReq hits
system.l2cache.ReadExReq_hits::total                3                       # number of ReadExReq hits
system.l2cache.ReadExReq_misses::.cpu.data            4                       # number of ReadExReq misses
system.l2cache.ReadExReq_misses::total              4                       # number of ReadExReq misses
system.l2cache.ReadExReq_miss_latency::.cpu.data       292800                       # number of ReadExReq miss cycles
system.l2cache.ReadExReq_miss_latency::total       292800                       # number of ReadExReq miss cycles
system.l2cache.ReadExReq_accesses::.cpu.data            7                       # number of ReadExReq accesses(hits+misses)
system.l2cache.ReadExReq_accesses::total            7                       # number of ReadExReq accesses(hits+misses)
system.l2cache.ReadExReq_miss_rate::.cpu.data     0.571429                       # miss rate for ReadExReq accesses
system.l2cache.ReadExReq_miss_rate::total     0.571429                       # miss rate for ReadExReq accesses
system.l2cache.ReadExReq_avg_miss_latency::.cpu.data        73200                       # average ReadExReq miss latency
system.l2cache.ReadExReq_avg_miss_latency::total        73200                       # average ReadExReq miss latency
system.l2cache.ReadExReq_mshr_misses::.cpu.data            4                       # number of ReadExReq MSHR misses
system.l2cache.ReadExReq_mshr_misses::total            4                       # number of ReadExReq MSHR misses
system.l2cache.ReadExReq_mshr_miss_latency::.cpu.data       260800                       # number of ReadExReq MSHR miss cycles
system.l2cache.ReadExReq_mshr_miss_latency::total       260800                       # number of ReadExReq MSHR miss cycles
system.l2cache.ReadExReq_mshr_miss_rate::.cpu.data     0.571429                       # mshr miss rate for ReadExReq accesses
system.l2cache.ReadExReq_mshr_miss_rate::total     0.571429                       # mshr miss rate for ReadExReq accesses
system.l2cache.ReadExReq_avg_mshr_miss_latency::.cpu.data        65200                       # average ReadExReq mshr miss latency
system.l2cache.ReadExReq_avg_mshr_miss_latency::total        65200                       # average ReadExReq mshr miss latency
system.l2cache.ReadSharedReq_hits::.cpu.inst          218                       # number of ReadSharedReq hits
system.l2cache.ReadSharedReq_hits::.cpu.data           76                       # number of ReadSharedReq hits
system.l2cache.ReadSharedReq_hits::.cpu.dcache.prefetcher            8                       # number of ReadSharedReq hits
system.l2cache.ReadSharedReq_hits::total          302                       # number of ReadSharedReq hits
system.l2cache.ReadSharedReq_misses::.cpu.inst          145                       # number of ReadSharedReq misses
system.l2cache.ReadSharedReq_misses::.cpu.data           72                       # number of ReadSharedReq misses
system.l2cache.ReadSharedReq_misses::.cpu.dcache.prefetcher           18                       # number of ReadSharedReq misses
system.l2cache.ReadSharedReq_misses::total          235                       # number of ReadSharedReq misses
system.l2cache.ReadSharedReq_miss_latency::.cpu.inst      9828400                       # number of ReadSharedReq miss cycles
system.l2cache.ReadSharedReq_miss_latency::.cpu.data      4737600                       # number of ReadSharedReq miss cycles
system.l2cache.ReadSharedReq_miss_latency::.cpu.dcache.prefetcher      1141982                       # number of ReadSharedReq miss cycles
system.l2cache.ReadSharedReq_miss_latency::total     15707982                       # number of ReadSharedReq miss cycles
system.l2cache.ReadSharedReq_accesses::.cpu.inst          363                       # number of ReadSharedReq accesses(hits+misses)
system.l2cache.ReadSharedReq_accesses::.cpu.data          148                       # number of ReadSharedReq accesses(hits+misses)
system.l2cache.ReadSharedReq_accesses::.cpu.dcache.prefetcher           26                       # number of ReadSharedReq accesses(hits+misses)
system.l2cache.ReadSharedReq_accesses::total          537                       # number of ReadSharedReq accesses(hits+misses)
system.l2cache.ReadSharedReq_miss_rate::.cpu.inst     0.399449                       # miss rate for ReadSharedReq accesses
system.l2cache.ReadSharedReq_miss_rate::.cpu.data     0.486486                       # miss rate for ReadSharedReq accesses
system.l2cache.ReadSharedReq_miss_rate::.cpu.dcache.prefetcher     0.692308                       # miss rate for ReadSharedReq accesses
system.l2cache.ReadSharedReq_miss_rate::total     0.437616                       # miss rate for ReadSharedReq accesses
system.l2cache.ReadSharedReq_avg_miss_latency::.cpu.inst 67782.068966                       # average ReadSharedReq miss latency
system.l2cache.ReadSharedReq_avg_miss_latency::.cpu.data        65800                       # average ReadSharedReq miss latency
system.l2cache.ReadSharedReq_avg_miss_latency::.cpu.dcache.prefetcher 63443.444444                       # average ReadSharedReq miss latency
system.l2cache.ReadSharedReq_avg_miss_latency::total 66842.476596                       # average ReadSharedReq miss latency
system.l2cache.ReadSharedReq_mshr_hits::.cpu.dcache.prefetcher            1                       # number of ReadSharedReq MSHR hits
system.l2cache.ReadSharedReq_mshr_hits::total            1                       # number of ReadSharedReq MSHR hits
system.l2cache.ReadSharedReq_mshr_misses::.cpu.inst          145                       # number of ReadSharedReq MSHR misses
system.l2cache.ReadSharedReq_mshr_misses::.cpu.data           72                       # number of ReadSharedReq MSHR misses
system.l2cache.ReadSharedReq_mshr_misses::.cpu.dcache.prefetcher           17                       # number of ReadSharedReq MSHR misses
system.l2cache.ReadSharedReq_mshr_misses::total          234                       # number of ReadSharedReq MSHR misses
system.l2cache.ReadSharedReq_mshr_miss_latency::.cpu.inst      8668400                       # number of ReadSharedReq MSHR miss cycles
system.l2cache.ReadSharedReq_mshr_miss_latency::.cpu.data      4161600                       # number of ReadSharedReq MSHR miss cycles
system.l2cache.ReadSharedReq_mshr_miss_latency::.cpu.dcache.prefetcher       975183                       # number of ReadSharedReq MSHR miss cycles
system.l2cache.ReadSharedReq_mshr_miss_latency::total     13805183                       # number of ReadSharedReq MSHR miss cycles
system.l2cache.ReadSharedReq_mshr_miss_rate::.cpu.inst     0.399449                       # mshr miss rate for ReadSharedReq accesses
system.l2cache.ReadSharedReq_mshr_miss_rate::.cpu.data     0.486486                       # mshr miss rate for ReadSharedReq accesses
system.l2cache.ReadSharedReq_mshr_miss_rate::.cpu.dcache.prefetcher     0.653846                       # mshr miss rate for ReadSharedReq accesses
system.l2cache.ReadSharedReq_mshr_miss_rate::total     0.435754                       # mshr miss rate for ReadSharedReq accesses
system.l2cache.ReadSharedReq_avg_mshr_miss_latency::.cpu.inst 59782.068966                       # average ReadSharedReq mshr miss latency
system.l2cache.ReadSharedReq_avg_mshr_miss_latency::.cpu.data        57800                       # average ReadSharedReq mshr miss latency
system.l2cache.ReadSharedReq_avg_mshr_miss_latency::.cpu.dcache.prefetcher 57363.705882                       # average ReadSharedReq mshr miss latency
system.l2cache.ReadSharedReq_avg_mshr_miss_latency::total 58996.508547                       # average ReadSharedReq mshr miss latency
system.l2cache.prefetcher.pwrStateResidencyTicks::UNDEFINED     40172400                       # Cumulative time (in ticks) in various power states
system.l2cache.tags.pwrStateResidencyTicks::UNDEFINED     40172400                       # Cumulative time (in ticks) in various power states
system.l2cache.tags.tagsinuse                    4096                       # Cycle average of tags in use
system.l2cache.tags.total_refs                  13777                       # Total number of references to valid blocks.
system.l2cache.tags.sampled_refs                 4341                       # Sample count of references to valid blocks.
system.l2cache.tags.avg_refs                 3.173693                       # Average number of references to valid blocks.
system.l2cache.tags.warmup_cycle                    0                       # Cycle when the warmup percentage was hit.
system.l2cache.tags.occ_blocks::.writebacks    47.064890                       # Average occupied blocks per requestor
system.l2cache.tags.occ_blocks::.cpu.inst  1103.661650                       # Average occupied blocks per requestor
system.l2cache.tags.occ_blocks::.cpu.data  1839.784806                       # Average occupied blocks per requestor
system.l2cache.tags.occ_blocks::.cpu.dcache.prefetcher   909.602393                       # Average occupied blocks per requestor
system.l2cache.tags.occ_blocks::.l2cache.prefetcher   195.886260                       # Average occupied blocks per requestor
system.l2cache.tags.occ_percent::.writebacks     0.011490                       # Average percentage of cache occupancy
system.l2cache.tags.occ_percent::.cpu.inst     0.269449                       # Average percentage of cache occupancy
system.l2cache.tags.occ_percent::.cpu.data     0.449166                       # Average percentage of cache occupancy
system.l2cache.tags.occ_percent::.cpu.dcache.prefetcher     0.222071                       # Average percentage of cache occupancy
system.l2cache.tags.occ_percent::.l2cache.prefetcher     0.047824                       # Average percentage of cache occupancy
system.l2cache.tags.occ_percent::total              1                       # Average percentage of cache occupancy
system.l2cache.tags.occ_task_id_blocks::1022         1070                       # Occupied blocks per task id
system.l2cache.tags.occ_task_id_blocks::1024         3026                       # Occupied blocks per task id
system.l2cache.tags.age_task_id_blocks_1022::0           14                       # Occupied blocks per task id
system.l2cache.tags.age_task_id_blocks_1022::1            6                       # Occupied blocks per task id
system.l2cache.tags.age_task_id_blocks_1022::2         1027                       # Occupied blocks per task id
system.l2cache.tags.age_task_id_blocks_1022::3           23                       # Occupied blocks per task id
system.l2cache.tags.age_task_id_blocks_1024::0          167                       # Occupied blocks per task id
system.l2cache.tags.age_task_id_blocks_1024::1           71                       # Occupied blocks per task id
system.l2cache.tags.age_task_id_blocks_1024::2         2612                       # Occupied blocks per task id
system.l2cache.tags.age_task_id_blocks_1024::3          176                       # Occupied blocks per task id
system.l2cache.tags.occ_task_id_percent::1022     0.261230                       # Percentage of cache occupancy per task id
system.l2cache.tags.occ_task_id_percent::1024     0.738770                       # Percentage of cache occupancy per task id
system.l2cache.tags.tag_accesses                 8949                       # Number of tag accesses
system.l2cache.tags.data_accesses                8949                       # Number of data accesses
system.mem_ctrl.pwrStateResidencyTicks::UNDEFINED     40172400                       # Cumulative time (in ticks) in various power states
system.mem_ctrl.bytes_read::.cpu.inst            9280                       # Number of bytes read from this memory
system.mem_ctrl.bytes_read::.cpu.data            4864                       # Number of bytes read from this memory
system.mem_ctrl.bytes_read::.cpu.dcache.prefetcher         1088                       # Number of bytes read from this memory
system.mem_ctrl.bytes_read::.l2cache.prefetcher          128                       # Number of bytes read from this memory
system.mem_ctrl.bytes_read::total               15360                       # Number of bytes read from this memory
system.mem_ctrl.bytes_inst_read::.cpu.inst         9280                       # Number of instructions bytes read from this memory
system.mem_ctrl.bytes_inst_read::total           9280                       # Number of instructions bytes read from this memory
system.mem_ctrl.bytes_written::.writebacks         1024                       # Number of bytes written to this memory
system.mem_ctrl.bytes_written::total             1024                       # Number of bytes written to this memory
system.mem_ctrl.num_reads::.cpu.inst              145                       # Number of read requests responded to by this memory
system.mem_ctrl.num_reads::.cpu.data               76                       # Number of read requests responded to by this memory
system.mem_ctrl.num_reads::.cpu.dcache.prefetcher           17                       # Number of read requests responded to by this memory
system.mem_ctrl.num_reads::.l2cache.prefetcher            2                       # Number of read requests responded to by this memory
system.mem_ctrl.num_reads::total                  240                       # Number of read requests responded to by this memory
system.mem_ctrl.num_writes::.writebacks            16                       # Number of write requests responded to by this memory
system.mem_ctrl.num_writes::total                  16                       # Number of write requests responded to by this memory
system.mem_ctrl.bw_read::.cpu.inst          231004371                       # Total read bandwidth from this memory (bytes/s)
system.mem_ctrl.bw_read::.cpu.data          121078153                       # Total read bandwidth from this memory (bytes/s)
system.mem_ctrl.bw_read::.cpu.dcache.prefetcher     27083271                       # Total read bandwidth from this memory (bytes/s)
system.mem_ctrl.bw_read::.l2cache.prefetcher      3186267                       # Total read bandwidth from this memory (bytes/s)
system.mem_ctrl.bw_read::total              382352063                       # Total read bandwidth from this memory (bytes/s)
system.mem_ctrl.bw_inst_read::.cpu.inst     231004371                       # Instruction read bandwidth from this memory (bytes/s)
system.mem_ctrl.bw_inst_read::total         231004371                       # Instruction read bandwidth from this memory (bytes/s)
system.mem_ctrl.bw_write::.writebacks        25490138                       # Write bandwidth from this memory (bytes/s)
system.mem_ctrl.bw_write::total              25490138                       # Write bandwidth from this memory (bytes/s)
system.mem_ctrl.bw_total::.writebacks        25490138                       # Total bandwidth to/from this memory (bytes/s)
system.mem_ctrl.bw_total::.cpu.inst         231004371                       # Total bandwidth to/from this memory (bytes/s)
system.mem_ctrl.bw_total::.cpu.data         121078153                       # Total bandwidth to/from this memory (bytes/s)
system.mem_ctrl.bw_total::.cpu.dcache.prefetcher     27083271                       # Total bandwidth to/from this memory (bytes/s)
system.mem_ctrl.bw_total::.l2cache.prefetcher      3186267                       # Total bandwidth to/from this memory (bytes/s)
system.mem_ctrl.bw_total::total             407842200                       # Total bandwidth to/from this memory (bytes/s)

---------- End Simulation Statistics   ----------
