
---------- Begin Simulation Statistics ----------
final_tick                                 1160006400                       # Number of ticks from beginning of simulation (restored from checkpoints and never reset)
host_inst_rate                                 190818                       # Simulator instruction rate (inst/s)
host_mem_usage                                4402744                       # Number of bytes of host memory used
host_op_rate                                   330833                       # Simulator op (including micro ops) rate (op/s)
host_seconds                                    12.20                       # Real time elapsed on the host
host_tick_rate                               95084284                       # Simulator tick rate (ticks/s)
sim_freq                                 1000000000000                       # Frequency of simulated ticks
sim_insts                                     2327920                       # Number of instructions simulated
sim_ops                                       4036076                       # Number of ops (including micro ops) simulated
sim_seconds                                  0.001160                       # Number of seconds simulated
sim_ticks                                  1160006400                       # Number of ticks simulated
system.cpu.branchPred.BTBCorrect                    0                       # Number of correct BTB predictions (this stat may not work properly.
system.cpu.branchPred.BTBHitPct              0.000000                       # BTB Hit Percentage
system.cpu.branchPred.BTBHits                       0                       # Number of BTB hits
system.cpu.branchPred.BTBLookups               456020                       # Number of BTB lookups
system.cpu.branchPred.RASInCorrect                  5                       # Number of incorrect RAS predictions.
system.cpu.branchPred.condIncorrect             22963                       # Number of conditional branches incorrect
system.cpu.branchPred.condPredicted            478452                       # Number of conditional branches predicted
system.cpu.branchPred.indirectHits             262360                       # Number of indirect target hits.
system.cpu.branchPred.indirectLookups          456020                       # Number of indirect predictor lookups.
system.cpu.branchPred.indirectMisses           193660                       # Number of indirect misses.
system.cpu.branchPred.lookups                  515946                       # Number of BP lookups
system.cpu.branchPred.usedRAS                   16994                       # Number of times the RAS was used to get a target.
system.cpu.branchPredindirectMispredicted        10862                       # Number of mispredicted indirect branches.
system.cpu.cc_regfile_reads                   2539528                       # number of cc regfile reads
system.cpu.cc_regfile_writes                  2195358                       # number of cc regfile writes
system.cpu.commit.amos                              0                       # Number of atomic instructions committed
system.cpu.commit.branchMispredicts             23023                       # The number of times a branch was mispredicted
system.cpu.commit.branches                     379049                       # Number of branches committed
system.cpu.commit.bw_lim_events                669534                       # number cycles where commit BW limit reached
system.cpu.commit.commitNonSpecStalls             732                       # The number of times commit has been forced to stall to communicate backwards
system.cpu.commit.commitSquashedInsts          855834                       # The number of squashed insts skipped by commit
system.cpu.commit.committedInsts              2327920                       # Number of instructions committed
system.cpu.commit.committedOps                4036076                       # Number of ops (including micro ops) committed
system.cpu.commit.committed_per_cycle::samples      2517179                       # Number of insts commited each cycle
system.cpu.commit.committed_per_cycle::mean     1.603412                       # Number of insts commited each cycle
system.cpu.commit.committed_per_cycle::stdev     1.718031                       # Number of insts commited each cycle
system.cpu.commit.committed_per_cycle::underflows            0      0.00%      0.00% # Number of insts commited each cycle
system.cpu.commit.committed_per_cycle::0      1167280     46.37%     46.37% # Number of insts commited each cycle
system.cpu.commit.committed_per_cycle::1       240609      9.56%     55.93% # Number of insts commited each cycle
system.cpu.commit.committed_per_cycle::2       201937      8.02%     63.95% # Number of insts commited each cycle
system.cpu.commit.committed_per_cycle::3       237819      9.45%     73.40% # Number of insts commited each cycle
system.cpu.commit.committed_per_cycle::4       669534     26.60%    100.00% # Number of insts commited each cycle
system.cpu.commit.committed_per_cycle::overflows            0      0.00%    100.00% # Number of insts commited each cycle
system.cpu.commit.committed_per_cycle::min_value            0                       # Number of insts commited each cycle
system.cpu.commit.committed_per_cycle::max_value            4                       # Number of insts commited each cycle
system.cpu.commit.committed_per_cycle::total      2517179                       # Number of insts commited each cycle
system.cpu.commit.fp_insts                      72844                       # Number of committed floating point instructions.
system.cpu.commit.function_calls                15220                       # Number of function calls committed.
system.cpu.commit.int_insts                   3981901                       # Number of committed integer instructions.
system.cpu.commit.loads                        528100                       # Number of loads committed
system.cpu.commit.membars                           1                       # Number of memory barriers committed
system.cpu.commit.op_class_0::No_OpClass        20174      0.50%      0.50% # Class of committed instruction
system.cpu.commit.op_class_0::IntAlu          3206735     79.45%     79.95% # Class of committed instruction
system.cpu.commit.op_class_0::IntMult            9467      0.23%     80.19% # Class of committed instruction
system.cpu.commit.op_class_0::IntDiv            37816      0.94%     81.12% # Class of committed instruction
system.cpu.commit.op_class_0::FloatAdd           2834      0.07%     81.19% # Class of committed instruction
system.cpu.commit.op_class_0::FloatCmp              0      0.00%     81.19% # Class of committed instruction
system.cpu.commit.op_class_0::FloatCvt           1200      0.03%     81.22% # Class of committed instruction
system.cpu.commit.op_class_0::FloatMult             0      0.00%     81.22% # Class of committed instruction
system.cpu.commit.op_class_0::FloatMultAcc            0      0.00%     81.22% # Class of committed instruction
system.cpu.commit.op_class_0::FloatDiv              0      0.00%     81.22% # Class of committed instruction
system.cpu.commit.op_class_0::FloatMisc             0      0.00%     81.22% # Class of committed instruction
system.cpu.commit.op_class_0::FloatSqrt             0      0.00%     81.22% # Class of committed instruction
system.cpu.commit.op_class_0::SimdAdd            6184      0.15%     81.38% # Class of committed instruction
system.cpu.commit.op_class_0::SimdAddAcc            0      0.00%     81.38% # Class of committed instruction
system.cpu.commit.op_class_0::SimdAlu           11116      0.28%     81.65% # Class of committed instruction
system.cpu.commit.op_class_0::SimdCmp               0      0.00%     81.65% # Class of committed instruction
system.cpu.commit.op_class_0::SimdCvt           12050      0.30%     81.95% # Class of committed instruction
system.cpu.commit.op_class_0::SimdMisc           6479      0.16%     82.11% # Class of committed instruction
system.cpu.commit.op_class_0::SimdMult              0      0.00%     82.11% # Class of committed instruction
system.cpu.commit.op_class_0::SimdMultAcc            0      0.00%     82.11% # Class of committed instruction
system.cpu.commit.op_class_0::SimdShift          1055      0.03%     82.14% # Class of committed instruction
system.cpu.commit.op_class_0::SimdShiftAcc            0      0.00%     82.14% # Class of committed instruction
system.cpu.commit.op_class_0::SimdDiv               0      0.00%     82.14% # Class of committed instruction
system.cpu.commit.op_class_0::SimdSqrt              0      0.00%     82.14% # Class of committed instruction
system.cpu.commit.op_class_0::SimdFloatAdd            0      0.00%     82.14% # Class of committed instruction
system.cpu.commit.op_class_0::SimdFloatAlu            0      0.00%     82.14% # Class of committed instruction
system.cpu.commit.op_class_0::SimdFloatCmp            0      0.00%     82.14% # Class of committed instruction
system.cpu.commit.op_class_0::SimdFloatCvt            0      0.00%     82.14% # Class of committed instruction
system.cpu.commit.op_class_0::SimdFloatDiv            0      0.00%     82.14% # Class of committed instruction
system.cpu.commit.op_class_0::SimdFloatMisc            0      0.00%     82.14% # Class of committed instruction
system.cpu.commit.op_class_0::SimdFloatMult            0      0.00%     82.14% # Class of committed instruction
system.cpu.commit.op_class_0::SimdFloatMultAcc            0      0.00%     82.14% # Class of committed instruction
system.cpu.commit.op_class_0::SimdFloatSqrt            0      0.00%     82.14% # Class of committed instruction
system.cpu.commit.op_class_0::SimdReduceAdd            0      0.00%     82.14% # Class of committed instruction
system.cpu.commit.op_class_0::SimdReduceAlu            0      0.00%     82.14% # Class of committed instruction
system.cpu.commit.op_class_0::SimdReduceCmp            0      0.00%     82.14% # Class of committed instruction
system.cpu.commit.op_class_0::SimdFloatReduceAdd            0      0.00%     82.14% # Class of committed instruction
system.cpu.commit.op_class_0::SimdFloatReduceCmp            0      0.00%     82.14% # Class of committed instruction
system.cpu.commit.op_class_0::SimdAes               0      0.00%     82.14% # Class of committed instruction
system.cpu.commit.op_class_0::SimdAesMix            0      0.00%     82.14% # Class of committed instruction
system.cpu.commit.op_class_0::SimdSha1Hash            0      0.00%     82.14% # Class of committed instruction
system.cpu.commit.op_class_0::SimdSha1Hash2            0      0.00%     82.14% # Class of committed instruction
system.cpu.commit.op_class_0::SimdSha256Hash            0      0.00%     82.14% # Class of committed instruction
system.cpu.commit.op_class_0::SimdSha256Hash2            0      0.00%     82.14% # Class of committed instruction
system.cpu.commit.op_class_0::SimdShaSigma2            0      0.00%     82.14% # Class of committed instruction
system.cpu.commit.op_class_0::SimdShaSigma3            0      0.00%     82.14% # Class of committed instruction
system.cpu.commit.op_class_0::SimdPredAlu            0      0.00%     82.14% # Class of committed instruction
system.cpu.commit.op_class_0::MemRead          509062     12.61%     94.75% # Class of committed instruction
system.cpu.commit.op_class_0::MemWrite         180797      4.48%     99.23% # Class of committed instruction
system.cpu.commit.op_class_0::FloatMemRead        19038      0.47%     99.70% # Class of committed instruction
system.cpu.commit.op_class_0::FloatMemWrite        12069      0.30%    100.00% # Class of committed instruction
system.cpu.commit.op_class_0::IprAccess             0      0.00%    100.00% # Class of committed instruction
system.cpu.commit.op_class_0::InstPrefetch            0      0.00%    100.00% # Class of committed instruction
system.cpu.commit.op_class_0::total           4036076                       # Class of committed instruction
system.cpu.commit.refs                         720966                       # Number of memory references committed
system.cpu.commit.swp_count                         0                       # Number of s/w prefetches committed
system.cpu.commit.vec_insts                         0                       # Number of committed Vector instructions.
system.cpu.committedInsts                     2327920                       # Number of Instructions Simulated
system.cpu.committedOps                       4036076                       # Number of Ops (including micro ops) Simulated
system.cpu.cpi                               1.245755                       # CPI: Cycles Per Instruction
system.cpu.cpi_total                         1.245755                       # CPI: Total CPI of All Threads
system.cpu.dcache.prefetcher.num_hwpf_issued         8155                       # number of hwpf issued
system.cpu.dcache.prefetcher.pfBufferHit        34374                       # number of redundant prefetches already in prefetch queue
system.cpu.dcache.prefetcher.pfIdentified        50302                       # number of prefetch candidates identified
system.cpu.dcache.prefetcher.pfInCache              0                       # number of redundant prefetches already in cache/mshr dropped
system.cpu.dcache.prefetcher.pfRemovedFull            0                       # number of prefetches dropped due to prefetch queue size
system.cpu.dcache.prefetcher.pfSpanPage          4678                       # number of prefetches that crossed the page
system.cpu.decode.BlockedCycles               1061033                       # Number of cycles decode is blocked
system.cpu.decode.DecodedInsts                5095004                       # Number of instructions handled by decode
system.cpu.decode.IdleCycles                   325800                       # Number of cycles decode is idle
system.cpu.decode.RunCycles                   1240087                       # Number of cycles decode is running
system.cpu.decode.SquashCycles                  23092                       # Number of cycles decode is squashing
system.cpu.decode.UnblockCycles                100376                       # Number of cycles decode is unblocking
system.cpu.dtb.rdAccesses                      608175                       # TLB accesses on read requests
system.cpu.dtb.rdMisses                          1778                       # TLB misses on read requests
system.cpu.dtb.wrAccesses                      212188                       # TLB accesses on write requests
system.cpu.dtb.wrMisses                           166                       # TLB misses on write requests
system.cpu.fetch.Branches                      515946                       # Number of branches that fetch encountered
system.cpu.fetch.CacheLines                    281308                       # Number of cache lines fetched
system.cpu.fetch.Cycles                       2359195                       # Number of cycles fetch has run and was not squashing or blocked
system.cpu.fetch.IcacheSquashes                  4255                       # Number of outstanding Icache misses that were squashed
system.cpu.fetch.Insts                        3066585                       # Number of instructions fetch has processed
system.cpu.fetch.MiscStallCycles                   87                       # Number of cycles fetch has spent waiting on interrupts, or bad addresses, or out of MSHRs
system.cpu.fetch.PendingQuiesceStallCycles            9                       # Number of stall cycles due to pending quiesce instructions
system.cpu.fetch.PendingTrapStallCycles           479                       # Number of stall cycles due to pending traps
system.cpu.fetch.SquashCycles                   46184                       # Number of cycles fetch has spent squashing
system.cpu.fetch.branchRate                  0.177911                       # Number of branch fetches per cycle
system.cpu.fetch.icacheStallCycles             367526                       # Number of cycles fetch is stalled on an Icache miss
system.cpu.fetch.predictedBranches             279354                       # Number of branches that fetch has predicted taken
system.cpu.fetch.rate                        1.057437                       # Number of inst fetches per cycle
system.cpu.fetch.rateDist::samples            2750388                       # Number of instructions fetched each cycle (Total)
system.cpu.fetch.rateDist::mean              1.948759                       # Number of instructions fetched each cycle (Total)
system.cpu.fetch.rateDist::stdev             1.924203                       # Number of instructions fetched each cycle (Total)
system.cpu.fetch.rateDist::underflows               0      0.00%      0.00% # Number of instructions fetched each cycle (Total)
system.cpu.fetch.rateDist::0                  1288329     46.84%     46.84% # Number of instructions fetched each cycle (Total)
system.cpu.fetch.rateDist::1                    85405      3.11%     49.95% # Number of instructions fetched each cycle (Total)
system.cpu.fetch.rateDist::2                    70941      2.58%     52.53% # Number of instructions fetched each cycle (Total)
system.cpu.fetch.rateDist::3                    90295      3.28%     55.81% # Number of instructions fetched each cycle (Total)
system.cpu.fetch.rateDist::4                  1215418     44.19%    100.00% # Number of instructions fetched each cycle (Total)
system.cpu.fetch.rateDist::overflows                0      0.00%    100.00% # Number of instructions fetched each cycle (Total)
system.cpu.fetch.rateDist::min_value                0                       # Number of instructions fetched each cycle (Total)
system.cpu.fetch.rateDist::max_value                4                       # Number of instructions fetched each cycle (Total)
system.cpu.fetch.rateDist::total              2750388                       # Number of instructions fetched each cycle (Total)
system.cpu.fp_regfile_reads                    117761                       # number of floating regfile reads
system.cpu.fp_regfile_writes                    64640                       # number of floating regfile writes
system.cpu.fuPool.fu_ticks_busy::IntALU(0)    241298800                       # Total ticks fu was busy
system.cpu.fuPool.fu_ticks_busy::IntALU(1)    241298400                       # Total ticks fu was busy
system.cpu.fuPool.fu_ticks_busy::IntALU(2)    241298400                       # Total ticks fu was busy
system.cpu.fuPool.fu_ticks_busy::IntALU(3)    241298400                       # Total ticks fu was busy
system.cpu.fuPool.fu_ticks_busy::IntALU(4)    241298400                       # Total ticks fu was busy
system.cpu.fuPool.fu_ticks_busy::IntALU(5)    241298400                       # Total ticks fu was busy
system.cpu.fuPool.fu_ticks_busy::IntMultDiv(0)     10239600                       # Total ticks fu was busy
system.cpu.fuPool.fu_ticks_busy::IntMultDiv(1)     10239200                       # Total ticks fu was busy
system.cpu.fuPool.fu_ticks_busy::FP_ALU(0)       547600                       # Total ticks fu was busy
system.cpu.fuPool.fu_ticks_busy::FP_ALU(1)       547600                       # Total ticks fu was busy
system.cpu.fuPool.fu_ticks_busy::FP_ALU(2)       547200                       # Total ticks fu was busy
system.cpu.fuPool.fu_ticks_busy::FP_ALU(3)       547200                       # Total ticks fu was busy
system.cpu.fuPool.fu_ticks_busy::FP_MultDiv(0)            0                       # Total ticks fu was busy
system.cpu.fuPool.fu_ticks_busy::FP_MultDiv(1)            0                       # Total ticks fu was busy
system.cpu.fuPool.fu_ticks_busy::SIMD_Unit(0)      4370000                       # Total ticks fu was busy
system.cpu.fuPool.fu_ticks_busy::SIMD_Unit(1)      4477200                       # Total ticks fu was busy
system.cpu.fuPool.fu_ticks_busy::SIMD_Unit(2)      4431200                       # Total ticks fu was busy
system.cpu.fuPool.fu_ticks_busy::SIMD_Unit(3)      4327200                       # Total ticks fu was busy
system.cpu.fuPool.fu_ticks_busy::PredALU(0)            0                       # Total ticks fu was busy
system.cpu.fuPool.fu_ticks_busy::RdWrPort(0)     83491200                       # Total ticks fu was busy
system.cpu.fuPool.fu_ticks_busy::RdWrPort(1)     83448000                       # Total ticks fu was busy
system.cpu.fuPool.fu_ticks_busy::RdWrPort(2)     83409200                       # Total ticks fu was busy
system.cpu.fuPool.fu_ticks_busy::RdWrPort(3)     83478800                       # Total ticks fu was busy
system.cpu.fuPool.fu_ticks_busy::IprPort(0)            0                       # Total ticks fu was busy
system.cpu.fuPool.fu_ticks_busy::total     1821892000                       # Total ticks fu was busy
system.cpu.icache.prefetcher.num_hwpf_issued            0                       # number of hwpf issued
system.cpu.icache.prefetcher.pfBufferHit            0                       # number of redundant prefetches already in prefetch queue
system.cpu.icache.prefetcher.pfIdentified            0                       # number of prefetch candidates identified
system.cpu.icache.prefetcher.pfInCache              0                       # number of redundant prefetches already in cache/mshr dropped
system.cpu.icache.prefetcher.pfRemovedFull            0                       # number of prefetches dropped due to prefetch queue size
system.cpu.icache.prefetcher.pfSpanPage             0                       # number of prefetches that crossed the page
system.cpu.idleCycles                          149629                       # Total number of cycles that the CPU has spent unscheduled due to idling
system.cpu.iew.branchMispredicts                26934                       # Number of branch mispredicts detected at execute
system.cpu.iew.exec_branches                   407467                       # Number of branches executed
system.cpu.iew.exec_nop                             0                       # number of nop insts executed
system.cpu.iew.exec_rate                     1.568209                       # Inst execution rate
system.cpu.iew.exec_refs                       822197                       # number of memory reference insts executed
system.cpu.iew.exec_stores                     212177                       # Number of stores executed
system.cpu.iew.exec_swp                             0                       # number of swp insts executed
system.cpu.iew.iewBlockCycles                  681307                       # Number of cycles IEW is blocking
system.cpu.iew.iewDispLoadInsts                639102                       # Number of dispatched load instructions
system.cpu.iew.iewDispNonSpecInsts                921                       # Number of dispatched non-speculative instructions
system.cpu.iew.iewDispSquashedInsts               577                       # Number of squashed instructions skipped by dispatch
system.cpu.iew.iewDispStoreInsts               222339                       # Number of dispatched store instructions
system.cpu.iew.iewDispatchedInsts             4891859                       # Number of instructions dispatched to IQ
system.cpu.iew.iewExecLoadInsts                610020                       # Number of load instructions executed
system.cpu.iew.iewExecSquashedInsts             32489                       # Number of squashed instructions skipped in execute
system.cpu.iew.iewExecutedInsts               4547834                       # Number of executed instructions
system.cpu.iew.iewIQFullEvents                   3329                       # Number of times the IQ has become full, causing a stall
system.cpu.iew.iewIdleCycles                        0                       # Number of cycles IEW is idle
system.cpu.iew.iewLSQFullEvents                  7793                       # Number of times the LSQ has become full, causing a stall
system.cpu.iew.iewSquashCycles                  23092                       # Number of cycles IEW is squashing
system.cpu.iew.iewUnblockCycles                 13953                       # Number of cycles IEW is unblocking
system.cpu.iew.lsq.thread0.blockedLoads             0                       # Number of blocked loads due to partial load-store forwarding
system.cpu.iew.lsq.thread0.cacheBlocked           637                       # Number of times an access to memory failed due to the cache being blocked
system.cpu.iew.lsq.thread0.forwLoads            45405                       # Number of loads that had data forwarded from stores
system.cpu.iew.lsq.thread0.ignoredResponses          269                       # Number of memory responses ignored because the instruction is squashed
system.cpu.iew.lsq.thread0.invAddrLoads             0                       # Number of loads ignored due to an invalid address
system.cpu.iew.lsq.thread0.invAddrSwpfs             0                       # Number of software prefetches ignored due to an invalid address
system.cpu.iew.lsq.thread0.memOrderViolation           82                       # Number of memory ordering violations
system.cpu.iew.lsq.thread0.rescheduledLoads            0                       # Number of loads that were rescheduled
system.cpu.iew.lsq.thread0.squashedLoads       111000                       # Number of loads squashed
system.cpu.iew.lsq.thread0.squashedStores        29472                       # Number of stores squashed
system.cpu.iew.memOrderViolationEvents             82                       # Number of memory order violations
system.cpu.iew.predictedNotTakenIncorrect        18925                       # Number of branches that were predicted not taken incorrectly
system.cpu.iew.predictedTakenIncorrect           8009                       # Number of branches that were predicted taken incorrectly
system.cpu.iew.wb_consumers                   6439295                       # num instructions consuming a value
system.cpu.iew.wb_count                       4526652                       # cumulative count of insts written-back
system.cpu.iew.wb_fanout                     0.563705                       # average fanout of values written-back
system.cpu.iew.wb_producers                   3629866                       # num instructions producing a value
system.cpu.iew.wb_rate                       1.560905                       # insts written-back per cycle
system.cpu.iew.wb_sent                        4533051                       # cumulative count of insts sent to commit
system.cpu.int_regfile_reads                  7074897                       # number of integer regfile reads
system.cpu.int_regfile_writes                 3927179                       # number of integer regfile writes
system.cpu.ipc                               0.802726                       # IPC: Instructions Per Cycle
system.cpu.ipc_total                         0.802726                       # IPC: Total IPC of All Threads
system.cpu.iq.FU_type_0::No_OpClass             25593      0.56%      0.56% # Type of FU issued
system.cpu.iq.FU_type_0::IntAlu               3619478     79.02%     79.58% # Type of FU issued
system.cpu.iq.FU_type_0::IntMult                 9496      0.21%     79.79% # Type of FU issued
system.cpu.iq.FU_type_0::IntDiv                 41701      0.91%     80.70% # Type of FU issued
system.cpu.iq.FU_type_0::FloatAdd                4234      0.09%     80.79% # Type of FU issued
system.cpu.iq.FU_type_0::FloatCmp                   0      0.00%     80.79% # Type of FU issued
system.cpu.iq.FU_type_0::FloatCvt                1240      0.03%     80.82% # Type of FU issued
system.cpu.iq.FU_type_0::FloatMult                  0      0.00%     80.82% # Type of FU issued
system.cpu.iq.FU_type_0::FloatMultAcc               0      0.00%     80.82% # Type of FU issued
system.cpu.iq.FU_type_0::FloatDiv                   0      0.00%     80.82% # Type of FU issued
system.cpu.iq.FU_type_0::FloatMisc                  0      0.00%     80.82% # Type of FU issued
system.cpu.iq.FU_type_0::FloatSqrt                  0      0.00%     80.82% # Type of FU issued
system.cpu.iq.FU_type_0::SimdAdd                 6748      0.15%     80.97% # Type of FU issued
system.cpu.iq.FU_type_0::SimdAddAcc                 0      0.00%     80.97% # Type of FU issued
system.cpu.iq.FU_type_0::SimdAlu                14640      0.32%     81.29% # Type of FU issued
system.cpu.iq.FU_type_0::SimdCmp                    0      0.00%     81.29% # Type of FU issued
system.cpu.iq.FU_type_0::SimdCvt                13603      0.30%     81.58% # Type of FU issued
system.cpu.iq.FU_type_0::SimdMisc                7009      0.15%     81.74% # Type of FU issued
system.cpu.iq.FU_type_0::SimdMult                   0      0.00%     81.74% # Type of FU issued
system.cpu.iq.FU_type_0::SimdMultAcc                0      0.00%     81.74% # Type of FU issued
system.cpu.iq.FU_type_0::SimdShift               2014      0.04%     81.78% # Type of FU issued
system.cpu.iq.FU_type_0::SimdShiftAcc               0      0.00%     81.78% # Type of FU issued
system.cpu.iq.FU_type_0::SimdDiv                    0      0.00%     81.78% # Type of FU issued
system.cpu.iq.FU_type_0::SimdSqrt                   0      0.00%     81.78% # Type of FU issued
system.cpu.iq.FU_type_0::SimdFloatAdd               0      0.00%     81.78% # Type of FU issued
system.cpu.iq.FU_type_0::SimdFloatAlu               0      0.00%     81.78% # Type of FU issued
system.cpu.iq.FU_type_0::SimdFloatCmp               0      0.00%     81.78% # Type of FU issued
system.cpu.iq.FU_type_0::SimdFloatCvt               0      0.00%     81.78% # Type of FU issued
system.cpu.iq.FU_type_0::SimdFloatDiv               0      0.00%     81.78% # Type of FU issued
system.cpu.iq.FU_type_0::SimdFloatMisc              0      0.00%     81.78% # Type of FU issued
system.cpu.iq.FU_type_0::SimdFloatMult              0      0.00%     81.78% # Type of FU issued
system.cpu.iq.FU_type_0::SimdFloatMultAcc            0      0.00%     81.78% # Type of FU issued
system.cpu.iq.FU_type_0::SimdFloatSqrt              0      0.00%     81.78% # Type of FU issued
system.cpu.iq.FU_type_0::SimdReduceAdd              0      0.00%     81.78% # Type of FU issued
system.cpu.iq.FU_type_0::SimdReduceAlu              0      0.00%     81.78% # Type of FU issued
system.cpu.iq.FU_type_0::SimdReduceCmp              0      0.00%     81.78% # Type of FU issued
system.cpu.iq.FU_type_0::SimdFloatReduceAdd            0      0.00%     81.78% # Type of FU issued
system.cpu.iq.FU_type_0::SimdFloatReduceCmp            0      0.00%     81.78% # Type of FU issued
system.cpu.iq.FU_type_0::SimdAes                    0      0.00%     81.78% # Type of FU issued
system.cpu.iq.FU_type_0::SimdAesMix                 0      0.00%     81.78% # Type of FU issued
system.cpu.iq.FU_type_0::SimdSha1Hash               0      0.00%     81.78% # Type of FU issued
system.cpu.iq.FU_type_0::SimdSha1Hash2              0      0.00%     81.78% # Type of FU issued
system.cpu.iq.FU_type_0::SimdSha256Hash             0      0.00%     81.78% # Type of FU issued
system.cpu.iq.FU_type_0::SimdSha256Hash2            0      0.00%     81.78% # Type of FU issued
system.cpu.iq.FU_type_0::SimdShaSigma2              0      0.00%     81.78% # Type of FU issued
system.cpu.iq.FU_type_0::SimdShaSigma3              0      0.00%     81.78% # Type of FU issued
system.cpu.iq.FU_type_0::SimdPredAlu                0      0.00%     81.78% # Type of FU issued
system.cpu.iq.FU_type_0::MemRead               595222     13.00%     94.77% # Type of FU issued
system.cpu.iq.FU_type_0::MemWrite              201331      4.40%     99.17% # Type of FU issued
system.cpu.iq.FU_type_0::FloatMemRead           24598      0.54%     99.71% # Type of FU issued
system.cpu.iq.FU_type_0::FloatMemWrite          13419      0.29%    100.00% # Type of FU issued
system.cpu.iq.FU_type_0::IprAccess                  0      0.00%    100.00% # Type of FU issued
system.cpu.iq.FU_type_0::InstPrefetch               0      0.00%    100.00% # Type of FU issued
system.cpu.iq.FU_type_0::total                4580326                       # Type of FU issued
system.cpu.iq.fp_alu_accesses                   88479                       # Number of floating point alu accesses
system.cpu.iq.fp_inst_queue_reads              178191                       # Number of floating instruction queue reads
system.cpu.iq.fp_inst_queue_wakeup_accesses        85270                       # Number of floating instruction queue wakeup accesses
system.cpu.iq.fp_inst_queue_writes             127776                       # Number of floating instruction queue writes
system.cpu.iq.fu_busy_cnt                           0                       # FU busy when requested
system.cpu.iq.fu_busy_rate                          0                       # FU busy rate (busy events/executed inst)
system.cpu.iq.fu_full::No_OpClass                   0                       # attempts to use FU when none available
system.cpu.iq.fu_full::IntAlu                       0                       # attempts to use FU when none available
system.cpu.iq.fu_full::IntMult                      0                       # attempts to use FU when none available
system.cpu.iq.fu_full::IntDiv                       0                       # attempts to use FU when none available
system.cpu.iq.fu_full::FloatAdd                     0                       # attempts to use FU when none available
system.cpu.iq.fu_full::FloatCmp                     0                       # attempts to use FU when none available
system.cpu.iq.fu_full::FloatCvt                     0                       # attempts to use FU when none available
system.cpu.iq.fu_full::FloatMult                    0                       # attempts to use FU when none available
system.cpu.iq.fu_full::FloatMultAcc                 0                       # attempts to use FU when none available
system.cpu.iq.fu_full::FloatDiv                     0                       # attempts to use FU when none available
system.cpu.iq.fu_full::FloatMisc                    0                       # attempts to use FU when none available
system.cpu.iq.fu_full::FloatSqrt                    0                       # attempts to use FU when none available
system.cpu.iq.fu_full::SimdAdd                      0                       # attempts to use FU when none available
system.cpu.iq.fu_full::SimdAddAcc                   0                       # attempts to use FU when none available
system.cpu.iq.fu_full::SimdAlu                      0                       # attempts to use FU when none available
system.cpu.iq.fu_full::SimdCmp                      0                       # attempts to use FU when none available
system.cpu.iq.fu_full::SimdCvt                      0                       # attempts to use FU when none available
system.cpu.iq.fu_full::SimdMisc                     0                       # attempts to use FU when none available
system.cpu.iq.fu_full::SimdMult                     0                       # attempts to use FU when none available
system.cpu.iq.fu_full::SimdMultAcc                  0                       # attempts to use FU when none available
system.cpu.iq.fu_full::SimdShift                    0                       # attempts to use FU when none available
system.cpu.iq.fu_full::SimdShiftAcc                 0                       # attempts to use FU when none available
system.cpu.iq.fu_full::SimdDiv                      0                       # attempts to use FU when none available
system.cpu.iq.fu_full::SimdSqrt                     0                       # attempts to use FU when none available
system.cpu.iq.fu_full::SimdFloatAdd                 0                       # attempts to use FU when none available
system.cpu.iq.fu_full::SimdFloatAlu                 0                       # attempts to use FU when none available
system.cpu.iq.fu_full::SimdFloatCmp                 0                       # attempts to use FU when none available
system.cpu.iq.fu_full::SimdFloatCvt                 0                       # attempts to use FU when none available
system.cpu.iq.fu_full::SimdFloatDiv                 0                       # attempts to use FU when none available
system.cpu.iq.fu_full::SimdFloatMisc                0                       # attempts to use FU when none available
system.cpu.iq.fu_full::SimdFloatMult                0                       # attempts to use FU when none available
system.cpu.iq.fu_full::SimdFloatMultAcc             0                       # attempts to use FU when none available
system.cpu.iq.fu_full::SimdFloatSqrt                0                       # attempts to use FU when none available
system.cpu.iq.fu_full::SimdReduceAdd                0                       # attempts to use FU when none available
system.cpu.iq.fu_full::SimdReduceAlu                0                       # attempts to use FU when none available
system.cpu.iq.fu_full::SimdReduceCmp                0                       # attempts to use FU when none available
system.cpu.iq.fu_full::SimdFloatReduceAdd            0                       # attempts to use FU when none available
system.cpu.iq.fu_full::SimdFloatReduceCmp            0                       # attempts to use FU when none available
system.cpu.iq.fu_full::SimdAes                      0                       # attempts to use FU when none available
system.cpu.iq.fu_full::SimdAesMix                   0                       # attempts to use FU when none available
system.cpu.iq.fu_full::SimdSha1Hash                 0                       # attempts to use FU when none available
system.cpu.iq.fu_full::SimdSha1Hash2                0                       # attempts to use FU when none available
system.cpu.iq.fu_full::SimdSha256Hash               0                       # attempts to use FU when none available
system.cpu.iq.fu_full::SimdSha256Hash2              0                       # attempts to use FU when none available
system.cpu.iq.fu_full::SimdShaSigma2                0                       # attempts to use FU when none available
system.cpu.iq.fu_full::SimdShaSigma3                0                       # attempts to use FU when none available
system.cpu.iq.fu_full::SimdPredAlu                  0                       # attempts to use FU when none available
system.cpu.iq.fu_full::MemRead                      0                       # attempts to use FU when none available
system.cpu.iq.fu_full::MemWrite                     0                       # attempts to use FU when none available
system.cpu.iq.fu_full::FloatMemRead                 0                       # attempts to use FU when none available
system.cpu.iq.fu_full::FloatMemWrite                0                       # attempts to use FU when none available
system.cpu.iq.fu_full::IprAccess                    0                       # attempts to use FU when none available
system.cpu.iq.fu_full::InstPrefetch                 0                       # attempts to use FU when none available
system.cpu.iq.int_alu_accesses                4466254                       # Number of integer alu accesses
system.cpu.iq.int_inst_queue_reads           11749332                       # Number of integer instruction queue reads
system.cpu.iq.int_inst_queue_wakeup_accesses      4441382                       # Number of integer instruction queue wakeup accesses
system.cpu.iq.int_inst_queue_writes           5619935                       # Number of integer instruction queue writes
system.cpu.iq.iqInstsAdded                    4890764                       # Number of instructions added to the IQ (excludes non-spec)
system.cpu.iq.iqInstsIssued                   4580326                       # Number of instructions issued
system.cpu.iq.iqNonSpecInstsAdded                1095                       # Number of non-speculative instructions added to the IQ
system.cpu.iq.iqSquashedInstsExamined          855772                       # Number of squashed instructions iterated over during squash; mainly for profiling
system.cpu.iq.iqSquashedInstsIssued             16486                       # Number of squashed instructions issued
system.cpu.iq.iqSquashedNonSpecRemoved            363                       # Number of squashed non-spec instructions that were removed
system.cpu.iq.iqSquashedOperandsExamined      1286365                       # Number of squashed operands that are examined and possibly removed from graph
system.cpu.iq.issued_per_cycle::samples       2750388                       # Number of insts issued each cycle
system.cpu.iq.issued_per_cycle::mean         1.665338                       # Number of insts issued each cycle
system.cpu.iq.issued_per_cycle::stdev        1.652677                       # Number of insts issued each cycle
system.cpu.iq.issued_per_cycle::underflows            0      0.00%      0.00% # Number of insts issued each cycle
system.cpu.iq.issued_per_cycle::0             1172828     42.64%     42.64% # Number of insts issued each cycle
system.cpu.iq.issued_per_cycle::1              220758      8.03%     50.67% # Number of insts issued each cycle
system.cpu.iq.issued_per_cycle::2              341964     12.43%     63.10% # Number of insts issued each cycle
system.cpu.iq.issued_per_cycle::3              383712     13.95%     77.05% # Number of insts issued each cycle
system.cpu.iq.issued_per_cycle::4              631126     22.95%    100.00% # Number of insts issued each cycle
system.cpu.iq.issued_per_cycle::overflows            0      0.00%    100.00% # Number of insts issued each cycle
system.cpu.iq.issued_per_cycle::min_value            0                       # Number of insts issued each cycle
system.cpu.iq.issued_per_cycle::max_value            4                       # Number of insts issued each cycle
system.cpu.iq.issued_per_cycle::total         2750388                       # Number of insts issued each cycle
system.cpu.iq.rate                           1.579413                       # Inst issue rate
system.cpu.iq.vec_alu_accesses                      0                       # Number of vector alu accesses
system.cpu.iq.vec_inst_queue_reads                  0                       # Number of vector instruction queue reads
system.cpu.iq.vec_inst_queue_wakeup_accesses            0                       # Number of vector instruction queue wakeup accesses
system.cpu.iq.vec_inst_queue_writes                 0                       # Number of vector instruction queue writes
system.cpu.itb.rdAccesses                           0                       # TLB accesses on read requests
system.cpu.itb.rdMisses                             0                       # TLB misses on read requests
system.cpu.itb.wrAccesses                      281386                       # TLB accesses on write requests
system.cpu.itb.wrMisses                           316                       # TLB misses on write requests
system.cpu.memDep0.conflictingLoads             18882                       # Number of conflicting loads.
system.cpu.memDep0.conflictingStores            10363                       # Number of conflicting stores.
system.cpu.memDep0.insertedLoads               639102                       # Number of loads inserted to the mem dependence unit.
system.cpu.memDep0.insertedStores              222339                       # Number of stores inserted to the mem dependence unit.
system.cpu.misc_regfile_reads                 1683137                       # number of misc regfile reads
system.cpu.misc_regfile_writes                    675                       # number of misc regfile writes
system.cpu.numCycles                          2900017                       # number of cpu cycles simulated
system.cpu.numWorkItemsCompleted                    0                       # number of work items this cpu completed
system.cpu.numWorkItemsStarted                      0                       # number of work items this cpu started
system.cpu.process.numSyscalls                     56                       # Number of system calls
system.cpu.rename.BlockCycles                  837100                       # Number of cycles rename is blocking
system.cpu.rename.CommittedMaps               5586243                       # Number of HB maps that are committed
system.cpu.rename.FullRegisterEvents              144                       # Number of times there has been no free registers
system.cpu.rename.IQFullEvents                  63788                       # Number of times rename has blocked due to IQ full
system.cpu.rename.IdleCycles                   381977                       # Number of cycles rename is idle
system.cpu.rename.LQFullEvents                  18210                       # Number of times rename has blocked due to LQ full
system.cpu.rename.ROBFullEvents                  4518                       # Number of times rename has blocked due to ROB full
system.cpu.rename.RenameLookups              12996982                       # Number of register rename lookups that rename has made
system.cpu.rename.RenamedInsts                5024580                       # Number of instructions processed by rename
system.cpu.rename.RenamedOperands             6933895                       # Number of destination operands rename has renamed
system.cpu.rename.RunCycles                   1274826                       # Number of cycles rename is running
system.cpu.rename.SQFullEvents                  91290                       # Number of times rename has blocked due to SQ full
system.cpu.rename.SquashCycles                  23092                       # Number of cycles rename is squashing
system.cpu.rename.UnblockCycles                214094                       # Number of cycles rename is unblocking
system.cpu.rename.UndoneMaps                  1347629                       # Number of HB maps that are undone due to squashing
system.cpu.rename.fp_rename_lookups            151273                       # Number of floating rename lookups
system.cpu.rename.int_rename_lookups          7994527                       # Number of integer rename lookups
system.cpu.rename.serializeStallCycles          19299                       # count of cycles rename stalled for serializing inst
system.cpu.rename.serializingInsts                870                       # count of serializing insts renamed
system.cpu.rename.skidInsts                    248007                       # count of insts added to the skid buffer
system.cpu.rename.tempSerializingInsts            919                       # count of temporary serializing insts renamed
system.cpu.rob.rob_reads                      6739555                       # The number of ROB reads
system.cpu.rob.rob_writes                    10017932                       # The number of ROB writes
system.cpu.timesIdled                            1485                       # Number of times that the entire CPU went into an idle state and unscheduled itself
system.l2bus.snoop_filter.hit_multi_requests            9                       # Number of requests hitting in the snoop filter with multiple (>1) holders of the requested data.
system.l2bus.snoop_filter.hit_multi_snoops            0                       # Number of snoops hitting in the snoop filter with multiple (>1) holders of the requested data.
system.l2bus.snoop_filter.hit_single_requests        18553                       # Number of requests hitting in the snoop filter with a single holder of the requested data.
system.l2bus.snoop_filter.hit_single_snoops          435                       # Number of snoops hitting in the snoop filter with a single holder of the requested data.
system.l2bus.snoop_filter.tot_requests          38386                       # Total number of requests made to the snoop filter.
system.l2bus.snoop_filter.tot_snoops              435                       # Total number of snoops made to the snoop filter.
system.l2cache.prefetcher.num_hwpf_issued          925                       # number of hwpf issued
system.l2cache.prefetcher.pfBufferHit               0                       # number of redundant prefetches already in prefetch queue
system.l2cache.prefetcher.pfIdentified            925                       # number of prefetch candidates identified
system.l2cache.prefetcher.pfInCache                 0                       # number of redundant prefetches already in cache/mshr dropped
system.l2cache.prefetcher.pfRemovedFull             0                       # number of prefetches dropped due to prefetch queue size
system.l2cache.prefetcher.pfSpanPage              123                       # number of prefetches that crossed the page
system.membus.snoop_filter.hit_multi_requests            0                       # Number of requests hitting in the snoop filter with multiple (>1) holders of the requested data.
system.membus.snoop_filter.hit_multi_snoops            0                       # Number of snoops hitting in the snoop filter with multiple (>1) holders of the requested data.
system.membus.snoop_filter.hit_single_requests         9576                       # Number of requests hitting in the snoop filter with a single holder of the requested data.
system.membus.snoop_filter.hit_single_snoops            0                       # Number of snoops hitting in the snoop filter with a single holder of the requested data.
system.membus.snoop_filter.tot_requests         23270                       # Total number of requests made to the snoop filter.
system.membus.snoop_filter.tot_snoops               0                       # Total number of snoops made to the snoop filter.
system.membus.pwrStateResidencyTicks::UNDEFINED   1160006400                       # Cumulative time (in ticks) in various power states
system.membus.trans_dist::ReadResp              12179                       # Transaction distribution
system.membus.trans_dist::WritebackDirty         1353                       # Transaction distribution
system.membus.trans_dist::CleanEvict             8223                       # Transaction distribution
system.membus.trans_dist::ReadExReq              1515                       # Transaction distribution
system.membus.trans_dist::ReadExResp             1515                       # Transaction distribution
system.membus.trans_dist::ReadSharedReq         12179                       # Transaction distribution
system.membus.pkt_count_system.l2cache.mem_side::system.mem_ctrl.port        36964                       # Packet count per connected master and slave (bytes)
system.membus.pkt_count_system.l2cache.mem_side::total        36964                       # Packet count per connected master and slave (bytes)
system.membus.pkt_count::total                  36964                       # Packet count per connected master and slave (bytes)
system.membus.pkt_size_system.l2cache.mem_side::system.mem_ctrl.port       963008                       # Cumulative packet size per connected master and slave (bytes)
system.membus.pkt_size_system.l2cache.mem_side::total       963008                       # Cumulative packet size per connected master and slave (bytes)
system.membus.pkt_size::total                  963008                       # Cumulative packet size per connected master and slave (bytes)
system.membus.snoops                                0                       # Total snoops (count)
system.membus.snoopTraffic                          0                       # Total snoop traffic (bytes)
system.membus.snoop_fanout::samples             13694                       # Request fanout histogram
system.membus.snoop_fanout::mean                    0                       # Request fanout histogram
system.membus.snoop_fanout::stdev                   0                       # Request fanout histogram
system.membus.snoop_fanout::underflows              0      0.00%      0.00% # Request fanout histogram
system.membus.snoop_fanout::0                   13694    100.00%    100.00% # Request fanout histogram
system.membus.snoop_fanout::1                       0      0.00%    100.00% # Request fanout histogram
system.membus.snoop_fanout::overflows               0      0.00%    100.00% # Request fanout histogram
system.membus.snoop_fanout::min_value               0                       # Request fanout histogram
system.membus.snoop_fanout::max_value               0                       # Request fanout histogram
system.membus.snoop_fanout::total               13694                       # Request fanout histogram
system.membus.reqLayer2.occupancy            11517599                       # Layer occupancy (ticks)
system.membus.reqLayer2.utilization               1.0                       # Layer utilization (%)
system.membus.respLayer0.occupancy           29717901                       # Layer occupancy (ticks)
system.membus.respLayer0.utilization              2.6                       # Layer utilization (%)
system.l2bus.pwrStateResidencyTicks::UNDEFINED   1160006400                       # Cumulative time (in ticks) in various power states
system.l2bus.trans_dist::ReadResp               17577                       # Transaction distribution
system.l2bus.trans_dist::WritebackDirty          4200                       # Transaction distribution
system.l2bus.trans_dist::CleanEvict             24007                       # Transaction distribution
system.l2bus.trans_dist::HardPFReq               1259                       # Transaction distribution
system.l2bus.trans_dist::ReadExReq               2256                       # Transaction distribution
system.l2bus.trans_dist::ReadExResp              2256                       # Transaction distribution
system.l2bus.trans_dist::ReadSharedReq          17577                       # Transaction distribution
system.l2bus.pkt_count_system.cpu.icache.mem_side::system.l2cache.cpu_side         7599                       # Packet count per connected master and slave (bytes)
system.l2bus.pkt_count_system.cpu.dcache.mem_side::system.l2cache.cpu_side        50618                       # Packet count per connected master and slave (bytes)
system.l2bus.pkt_count::total                   58217                       # Packet count per connected master and slave (bytes)
system.l2bus.pkt_size_system.cpu.icache.mem_side::system.l2cache.cpu_side       167488                       # Cumulative packet size per connected master and slave (bytes)
system.l2bus.pkt_size_system.cpu.dcache.mem_side::system.l2cache.cpu_side      1283904                       # Cumulative packet size per connected master and slave (bytes)
system.l2bus.pkt_size::total                  1451392                       # Cumulative packet size per connected master and slave (bytes)
system.l2bus.snoops                             10915                       # Total snoops (count)
system.l2bus.snoopTraffic                       86720                       # Total snoop traffic (bytes)
system.l2bus.snoop_fanout::samples              30746                       # Request fanout histogram
system.l2bus.snoop_fanout::mean              0.014441                       # Request fanout histogram
system.l2bus.snoop_fanout::stdev             0.119301                       # Request fanout histogram
system.l2bus.snoop_fanout::underflows               0      0.00%      0.00% # Request fanout histogram
system.l2bus.snoop_fanout::0                    30302     98.56%     98.56% # Request fanout histogram
system.l2bus.snoop_fanout::1                      444      1.44%    100.00% # Request fanout histogram
system.l2bus.snoop_fanout::2                        0      0.00%    100.00% # Request fanout histogram
system.l2bus.snoop_fanout::overflows                0      0.00%    100.00% # Request fanout histogram
system.l2bus.snoop_fanout::min_value                0                       # Request fanout histogram
system.l2bus.snoop_fanout::max_value                1                       # Request fanout histogram
system.l2bus.snoop_fanout::total                30746                       # Request fanout histogram
system.l2bus.respLayer1.occupancy            20657199                       # Layer occupancy (ticks)
system.l2bus.respLayer1.utilization               1.8                       # Layer utilization (%)
system.l2bus.reqLayer0.occupancy             19096213                       # Layer occupancy (ticks)
system.l2bus.reqLayer0.utilization                1.6                       # Layer utilization (%)
system.l2bus.respLayer0.occupancy             3142800                       # Layer occupancy (ticks)
system.l2bus.respLayer0.utilization               0.3                       # Layer utilization (%)
system.clk_domain.clock                           400                       # Clock period in ticks
system.clk_domain.voltage_domain.voltage            1                       # Voltage in Volts
system.cpu.pwrStateResidencyTicks::ON      1160006400                       # Cumulative time (in ticks) in various power states
system.cpu.icache.pwrStateResidencyTicks::UNDEFINED   1160006400                       # Cumulative time (in ticks) in various power states
system.cpu.icache.demand_hits::.cpu.inst       278012                       # number of demand (read+write) hits
system.cpu.icache.demand_hits::total           278012                       # number of demand (read+write) hits
system.cpu.icache.overall_hits::.cpu.inst       278012                       # number of overall hits
system.cpu.icache.overall_hits::total          278012                       # number of overall hits
system.cpu.icache.demand_misses::.cpu.inst         3295                       # number of demand (read+write) misses
system.cpu.icache.demand_misses::total           3295                       # number of demand (read+write) misses
system.cpu.icache.overall_misses::.cpu.inst         3295                       # number of overall misses
system.cpu.icache.overall_misses::total          3295                       # number of overall misses
system.cpu.icache.demand_miss_latency::.cpu.inst    165556800                       # number of demand (read+write) miss cycles
system.cpu.icache.demand_miss_latency::total    165556800                       # number of demand (read+write) miss cycles
system.cpu.icache.overall_miss_latency::.cpu.inst    165556800                       # number of overall miss cycles
system.cpu.icache.overall_miss_latency::total    165556800                       # number of overall miss cycles
system.cpu.icache.demand_accesses::.cpu.inst       281307                       # number of demand (read+write) accesses
system.cpu.icache.demand_accesses::total       281307                       # number of demand (read+write) accesses
system.cpu.icache.overall_accesses::.cpu.inst       281307                       # number of overall (read+write) accesses
system.cpu.icache.overall_accesses::total       281307                       # number of overall (read+write) accesses
system.cpu.icache.demand_miss_rate::.cpu.inst     0.011713                       # miss rate for demand accesses
system.cpu.icache.demand_miss_rate::total     0.011713                       # miss rate for demand accesses
system.cpu.icache.overall_miss_rate::.cpu.inst     0.011713                       # miss rate for overall accesses
system.cpu.icache.overall_miss_rate::total     0.011713                       # miss rate for overall accesses
system.cpu.icache.demand_avg_miss_latency::.cpu.inst 50244.855842                       # average overall miss latency
system.cpu.icache.demand_avg_miss_latency::total 50244.855842                       # average overall miss latency
system.cpu.icache.overall_avg_miss_latency::.cpu.inst 50244.855842                       # average overall miss latency
system.cpu.icache.overall_avg_miss_latency::total 50244.855842                       # average overall miss latency
system.cpu.icache.blocked_cycles::no_mshrs           52                       # number of cycles access was blocked
system.cpu.icache.blocked_cycles::no_targets            0                       # number of cycles access was blocked
system.cpu.icache.blocked::no_mshrs                 3                       # number of cycles access was blocked
system.cpu.icache.blocked::no_targets               0                       # number of cycles access was blocked
system.cpu.icache.avg_blocked_cycles::no_mshrs    17.333333                       # average number of cycles each access was blocked
system.cpu.icache.avg_blocked_cycles::no_targets          nan                       # average number of cycles each access was blocked
system.cpu.icache.demand_mshr_hits::.cpu.inst          676                       # number of demand (read+write) MSHR hits
system.cpu.icache.demand_mshr_hits::total          676                       # number of demand (read+write) MSHR hits
system.cpu.icache.overall_mshr_hits::.cpu.inst          676                       # number of overall MSHR hits
system.cpu.icache.overall_mshr_hits::total          676                       # number of overall MSHR hits
system.cpu.icache.demand_mshr_misses::.cpu.inst         2619                       # number of demand (read+write) MSHR misses
system.cpu.icache.demand_mshr_misses::total         2619                       # number of demand (read+write) MSHR misses
system.cpu.icache.overall_mshr_misses::.cpu.inst         2619                       # number of overall MSHR misses
system.cpu.icache.overall_mshr_misses::total         2619                       # number of overall MSHR misses
system.cpu.icache.demand_mshr_miss_latency::.cpu.inst    132813600                       # number of demand (read+write) MSHR miss cycles
system.cpu.icache.demand_mshr_miss_latency::total    132813600                       # number of demand (read+write) MSHR miss cycles
system.cpu.icache.overall_mshr_miss_latency::.cpu.inst    132813600                       # number of overall MSHR miss cycles
system.cpu.icache.overall_mshr_miss_latency::total    132813600                       # number of overall MSHR miss cycles
system.cpu.icache.demand_mshr_miss_rate::.cpu.inst     0.009310                       # mshr miss rate for demand accesses
system.cpu.icache.demand_mshr_miss_rate::total     0.009310                       # mshr miss rate for demand accesses
system.cpu.icache.overall_mshr_miss_rate::.cpu.inst     0.009310                       # mshr miss rate for overall accesses
system.cpu.icache.overall_mshr_miss_rate::total     0.009310                       # mshr miss rate for overall accesses
system.cpu.icache.demand_avg_mshr_miss_latency::.cpu.inst 50711.569301                       # average overall mshr miss latency
system.cpu.icache.demand_avg_mshr_miss_latency::total 50711.569301                       # average overall mshr miss latency
system.cpu.icache.overall_avg_mshr_miss_latency::.cpu.inst 50711.569301                       # average overall mshr miss latency
system.cpu.icache.overall_avg_mshr_miss_latency::total 50711.569301                       # average overall mshr miss latency
system.cpu.icache.replacements                   2363                       # number of replacements
system.cpu.icache.ReadReq_hits::.cpu.inst       278012                       # number of ReadReq hits
system.cpu.icache.ReadReq_hits::total          278012                       # number of ReadReq hits
system.cpu.icache.ReadReq_misses::.cpu.inst         3295                       # number of ReadReq misses
system.cpu.icache.ReadReq_misses::total          3295                       # number of ReadReq misses
system.cpu.icache.ReadReq_miss_latency::.cpu.inst    165556800                       # number of ReadReq miss cycles
system.cpu.icache.ReadReq_miss_latency::total    165556800                       # number of ReadReq miss cycles
system.cpu.icache.ReadReq_accesses::.cpu.inst       281307                       # number of ReadReq accesses(hits+misses)
system.cpu.icache.ReadReq_accesses::total       281307                       # number of ReadReq accesses(hits+misses)
system.cpu.icache.ReadReq_miss_rate::.cpu.inst     0.011713                       # miss rate for ReadReq accesses
system.cpu.icache.ReadReq_miss_rate::total     0.011713                       # miss rate for ReadReq accesses
system.cpu.icache.ReadReq_avg_miss_latency::.cpu.inst 50244.855842                       # average ReadReq miss latency
system.cpu.icache.ReadReq_avg_miss_latency::total 50244.855842                       # average ReadReq miss latency
system.cpu.icache.ReadReq_mshr_hits::.cpu.inst          676                       # number of ReadReq MSHR hits
system.cpu.icache.ReadReq_mshr_hits::total          676                       # number of ReadReq MSHR hits
system.cpu.icache.ReadReq_mshr_misses::.cpu.inst         2619                       # number of ReadReq MSHR misses
system.cpu.icache.ReadReq_mshr_misses::total         2619                       # number of ReadReq MSHR misses
system.cpu.icache.ReadReq_mshr_miss_latency::.cpu.inst    132813600                       # number of ReadReq MSHR miss cycles
system.cpu.icache.ReadReq_mshr_miss_latency::total    132813600                       # number of ReadReq MSHR miss cycles
system.cpu.icache.ReadReq_mshr_miss_rate::.cpu.inst     0.009310                       # mshr miss rate for ReadReq accesses
system.cpu.icache.ReadReq_mshr_miss_rate::total     0.009310                       # mshr miss rate for ReadReq accesses
system.cpu.icache.ReadReq_avg_mshr_miss_latency::.cpu.inst 50711.569301                       # average ReadReq mshr miss latency
system.cpu.icache.ReadReq_avg_mshr_miss_latency::total 50711.569301                       # average ReadReq mshr miss latency
system.cpu.icache.prefetcher.pwrStateResidencyTicks::UNDEFINED   1160006400                       # Cumulative time (in ticks) in various power states
system.cpu.icache.tags.pwrStateResidencyTicks::UNDEFINED   1160006400                       # Cumulative time (in ticks) in various power states
system.cpu.icache.tags.tagsinuse           253.627550                       # Cycle average of tags in use
system.cpu.icache.tags.total_refs              221618                       # Total number of references to valid blocks.
system.cpu.icache.tags.sampled_refs              2363                       # Sample count of references to valid blocks.
system.cpu.icache.tags.avg_refs             93.786712                       # Average number of references to valid blocks.
system.cpu.icache.tags.warmup_cycle             66400                       # Cycle when the warmup percentage was hit.
system.cpu.icache.tags.occ_blocks::.cpu.inst   253.627550                       # Average occupied blocks per requestor
system.cpu.icache.tags.occ_percent::.cpu.inst     0.990733                       # Average percentage of cache occupancy
system.cpu.icache.tags.occ_percent::total     0.990733                       # Average percentage of cache occupancy
system.cpu.icache.tags.occ_task_id_blocks::1024          256                       # Occupied blocks per task id
system.cpu.icache.tags.age_task_id_blocks_1024::0           67                       # Occupied blocks per task id
system.cpu.icache.tags.age_task_id_blocks_1024::1           26                       # Occupied blocks per task id
system.cpu.icache.tags.age_task_id_blocks_1024::2          159                       # Occupied blocks per task id
system.cpu.icache.tags.age_task_id_blocks_1024::3            4                       # Occupied blocks per task id
system.cpu.icache.tags.occ_task_id_percent::1024            1                       # Percentage of cache occupancy per task id
system.cpu.icache.tags.tag_accesses            565233                       # Number of tag accesses
system.cpu.icache.tags.data_accesses           565233                       # Number of data accesses
system.cpu.dtb.walker.pwrStateResidencyTicks::UNDEFINED   1160006400                       # Cumulative time (in ticks) in various power states
system.cpu.interrupts.clk_domain.clock           6400                       # Clock period in ticks
system.cpu.itb.walker.pwrStateResidencyTicks::UNDEFINED   1160006400                       # Cumulative time (in ticks) in various power states
system.cpu.dcache.pwrStateResidencyTicks::UNDEFINED   1160006400                       # Cumulative time (in ticks) in various power states
system.cpu.dcache.demand_hits::.cpu.data       719657                       # number of demand (read+write) hits
system.cpu.dcache.demand_hits::total           719657                       # number of demand (read+write) hits
system.cpu.dcache.overall_hits::.cpu.data       719657                       # number of overall hits
system.cpu.dcache.overall_hits::total          719657                       # number of overall hits
system.cpu.dcache.demand_misses::.cpu.data        35115                       # number of demand (read+write) misses
system.cpu.dcache.demand_misses::total          35115                       # number of demand (read+write) misses
system.cpu.dcache.overall_misses::.cpu.data        35115                       # number of overall misses
system.cpu.dcache.overall_misses::total         35115                       # number of overall misses
system.cpu.dcache.demand_miss_latency::.cpu.data   1703293997                       # number of demand (read+write) miss cycles
system.cpu.dcache.demand_miss_latency::total   1703293997                       # number of demand (read+write) miss cycles
system.cpu.dcache.overall_miss_latency::.cpu.data   1703293997                       # number of overall miss cycles
system.cpu.dcache.overall_miss_latency::total   1703293997                       # number of overall miss cycles
system.cpu.dcache.demand_accesses::.cpu.data       754772                       # number of demand (read+write) accesses
system.cpu.dcache.demand_accesses::total       754772                       # number of demand (read+write) accesses
system.cpu.dcache.overall_accesses::.cpu.data       754772                       # number of overall (read+write) accesses
system.cpu.dcache.overall_accesses::total       754772                       # number of overall (read+write) accesses
system.cpu.dcache.demand_miss_rate::.cpu.data     0.046524                       # miss rate for demand accesses
system.cpu.dcache.demand_miss_rate::total     0.046524                       # miss rate for demand accesses
system.cpu.dcache.overall_miss_rate::.cpu.data     0.046524                       # miss rate for overall accesses
system.cpu.dcache.overall_miss_rate::total     0.046524                       # miss rate for overall accesses
system.cpu.dcache.demand_avg_miss_latency::.cpu.data 48506.165371                       # average overall miss latency
system.cpu.dcache.demand_avg_miss_latency::total 48506.165371                       # average overall miss latency
system.cpu.dcache.overall_avg_miss_latency::.cpu.data 48506.165371                       # average overall miss latency
system.cpu.dcache.overall_avg_miss_latency::total 48506.165371                       # average overall miss latency
system.cpu.dcache.blocked_cycles::no_mshrs        29830                       # number of cycles access was blocked
system.cpu.dcache.blocked_cycles::no_targets          138                       # number of cycles access was blocked
system.cpu.dcache.blocked::no_mshrs               782                       # number of cycles access was blocked
system.cpu.dcache.blocked::no_targets               1                       # number of cycles access was blocked
system.cpu.dcache.avg_blocked_cycles::no_mshrs    38.145780                       # average number of cycles each access was blocked
system.cpu.dcache.avg_blocked_cycles::no_targets          138                       # average number of cycles each access was blocked
system.cpu.dcache.unused_prefetches              1794                       # number of HardPF blocks evicted w/o reference
system.cpu.dcache.writebacks::.writebacks         2847                       # number of writebacks
system.cpu.dcache.writebacks::total              2847                       # number of writebacks
system.cpu.dcache.demand_mshr_hits::.cpu.data        22398                       # number of demand (read+write) MSHR hits
system.cpu.dcache.demand_mshr_hits::total        22398                       # number of demand (read+write) MSHR hits
system.cpu.dcache.overall_mshr_hits::.cpu.data        22398                       # number of overall MSHR hits
system.cpu.dcache.overall_mshr_hits::total        22398                       # number of overall MSHR hits
system.cpu.dcache.demand_mshr_misses::.cpu.data        12717                       # number of demand (read+write) MSHR misses
system.cpu.dcache.demand_mshr_misses::total        12717                       # number of demand (read+write) MSHR misses
system.cpu.dcache.overall_mshr_misses::.cpu.data        12717                       # number of overall MSHR misses
system.cpu.dcache.overall_mshr_misses::.cpu.dcache.prefetcher         4497                       # number of overall MSHR misses
system.cpu.dcache.overall_mshr_misses::total        17214                       # number of overall MSHR misses
system.cpu.dcache.demand_mshr_miss_latency::.cpu.data    589817997                       # number of demand (read+write) MSHR miss cycles
system.cpu.dcache.demand_mshr_miss_latency::total    589817997                       # number of demand (read+write) MSHR miss cycles
system.cpu.dcache.overall_mshr_miss_latency::.cpu.data    589817997                       # number of overall MSHR miss cycles
system.cpu.dcache.overall_mshr_miss_latency::.cpu.dcache.prefetcher    247934462                       # number of overall MSHR miss cycles
system.cpu.dcache.overall_mshr_miss_latency::total    837752459                       # number of overall MSHR miss cycles
system.cpu.dcache.demand_mshr_miss_rate::.cpu.data     0.016849                       # mshr miss rate for demand accesses
system.cpu.dcache.demand_mshr_miss_rate::total     0.016849                       # mshr miss rate for demand accesses
system.cpu.dcache.overall_mshr_miss_rate::.cpu.data     0.016849                       # mshr miss rate for overall accesses
system.cpu.dcache.overall_mshr_miss_rate::.cpu.dcache.prefetcher          inf                       # mshr miss rate for overall accesses
system.cpu.dcache.overall_mshr_miss_rate::total     0.022807                       # mshr miss rate for overall accesses
system.cpu.dcache.demand_avg_mshr_miss_latency::.cpu.data 46380.278132                       # average overall mshr miss latency
system.cpu.dcache.demand_avg_mshr_miss_latency::total 46380.278132                       # average overall mshr miss latency
system.cpu.dcache.overall_avg_mshr_miss_latency::.cpu.data 46380.278132                       # average overall mshr miss latency
system.cpu.dcache.overall_avg_mshr_miss_latency::.cpu.dcache.prefetcher 55133.302646                       # average overall mshr miss latency
system.cpu.dcache.overall_avg_mshr_miss_latency::total 48666.925700                       # average overall mshr miss latency
system.cpu.dcache.replacements                  16190                       # number of replacements
system.cpu.dcache.ReadReq_hits::.cpu.data       529073                       # number of ReadReq hits
system.cpu.dcache.ReadReq_hits::total          529073                       # number of ReadReq hits
system.cpu.dcache.ReadReq_misses::.cpu.data        32827                       # number of ReadReq misses
system.cpu.dcache.ReadReq_misses::total         32827                       # number of ReadReq misses
system.cpu.dcache.ReadReq_miss_latency::.cpu.data   1585839200                       # number of ReadReq miss cycles
system.cpu.dcache.ReadReq_miss_latency::total   1585839200                       # number of ReadReq miss cycles
system.cpu.dcache.ReadReq_accesses::.cpu.data       561900                       # number of ReadReq accesses(hits+misses)
system.cpu.dcache.ReadReq_accesses::total       561900                       # number of ReadReq accesses(hits+misses)
system.cpu.dcache.ReadReq_miss_rate::.cpu.data     0.058421                       # miss rate for ReadReq accesses
system.cpu.dcache.ReadReq_miss_rate::total     0.058421                       # miss rate for ReadReq accesses
system.cpu.dcache.ReadReq_avg_miss_latency::.cpu.data 48308.989551                       # average ReadReq miss latency
system.cpu.dcache.ReadReq_avg_miss_latency::total 48308.989551                       # average ReadReq miss latency
system.cpu.dcache.ReadReq_mshr_hits::.cpu.data        22366                       # number of ReadReq MSHR hits
system.cpu.dcache.ReadReq_mshr_hits::total        22366                       # number of ReadReq MSHR hits
system.cpu.dcache.ReadReq_mshr_misses::.cpu.data        10461                       # number of ReadReq MSHR misses
system.cpu.dcache.ReadReq_mshr_misses::total        10461                       # number of ReadReq MSHR misses
system.cpu.dcache.ReadReq_mshr_miss_latency::.cpu.data    475207200                       # number of ReadReq MSHR miss cycles
system.cpu.dcache.ReadReq_mshr_miss_latency::total    475207200                       # number of ReadReq MSHR miss cycles
system.cpu.dcache.ReadReq_mshr_miss_rate::.cpu.data     0.018617                       # mshr miss rate for ReadReq accesses
system.cpu.dcache.ReadReq_mshr_miss_rate::total     0.018617                       # mshr miss rate for ReadReq accesses
system.cpu.dcache.ReadReq_avg_mshr_miss_latency::.cpu.data 45426.555779                       # average ReadReq mshr miss latency
system.cpu.dcache.ReadReq_avg_mshr_miss_latency::total 45426.555779                       # average ReadReq mshr miss latency
system.cpu.dcache.WriteReq_hits::.cpu.data       190584                       # number of WriteReq hits
system.cpu.dcache.WriteReq_hits::total         190584                       # number of WriteReq hits
system.cpu.dcache.WriteReq_misses::.cpu.data         2288                       # number of WriteReq misses
system.cpu.dcache.WriteReq_misses::total         2288                       # number of WriteReq misses
system.cpu.dcache.WriteReq_miss_latency::.cpu.data    117454797                       # number of WriteReq miss cycles
system.cpu.dcache.WriteReq_miss_latency::total    117454797                       # number of WriteReq miss cycles
system.cpu.dcache.WriteReq_accesses::.cpu.data       192872                       # number of WriteReq accesses(hits+misses)
system.cpu.dcache.WriteReq_accesses::total       192872                       # number of WriteReq accesses(hits+misses)
system.cpu.dcache.WriteReq_miss_rate::.cpu.data     0.011863                       # miss rate for WriteReq accesses
system.cpu.dcache.WriteReq_miss_rate::total     0.011863                       # miss rate for WriteReq accesses
system.cpu.dcache.WriteReq_avg_miss_latency::.cpu.data 51335.138549                       # average WriteReq miss latency
system.cpu.dcache.WriteReq_avg_miss_latency::total 51335.138549                       # average WriteReq miss latency
system.cpu.dcache.WriteReq_mshr_hits::.cpu.data           32                       # number of WriteReq MSHR hits
system.cpu.dcache.WriteReq_mshr_hits::total           32                       # number of WriteReq MSHR hits
system.cpu.dcache.WriteReq_mshr_misses::.cpu.data         2256                       # number of WriteReq MSHR misses
system.cpu.dcache.WriteReq_mshr_misses::total         2256                       # number of WriteReq MSHR misses
system.cpu.dcache.WriteReq_mshr_miss_latency::.cpu.data    114610797                       # number of WriteReq MSHR miss cycles
[...]
system.l2cache.overall_mshr_miss_rate::.cpu.data     0.357405                       # mshr miss rate for overall accesses
system.l2cache.overall_mshr_miss_rate::.cpu.dcache.prefetcher     0.481928                       # mshr miss rate for overall accesses
system.l2cache.overall_mshr_miss_rate::.l2cache.prefetcher          inf                       # mshr miss rate for overall accesses
system.l2cache.overall_mshr_miss_rate::total     0.042526                       # mshr miss rate for overall accesses
system.l2cache.demand_avg_mshr_miss_latency::.cpu.inst 58886.511628                       # average overall mshr miss latency
system.l2cache.demand_avg_mshr_miss_latency::.cpu.data 59636.986301                       # average overall mshr miss latency
system.l2cache.demand_avg_mshr_miss_latency::.cpu.dcache.prefetcher 59354.212500                       # average overall mshr miss latency
system.l2cache.demand_avg_mshr_miss_latency::total 59206.405237                       # average overall mshr miss latency
system.l2cache.overall_avg_mshr_miss_latency::.cpu.inst 58886.511628                       # average overall mshr miss latency
system.l2cache.overall_avg_mshr_miss_latency::.cpu.data 59636.986301                       # average overall mshr miss latency
system.l2cache.overall_avg_mshr_miss_latency::.cpu.dcache.prefetcher 59354.212500                       # average overall mshr miss latency
system.l2cache.overall_avg_mshr_miss_latency::.l2cache.prefetcher 60902.444444                       # average overall mshr miss latency
system.l2cache.overall_avg_mshr_miss_latency::total 59261.644150                       # average overall mshr miss latency
system.l2cache.replacements                       845                       # number of replacements
system.l2cache.WritebackDirty_hits::.writebacks          662                       # number of WritebackDirty hits
system.l2cache.WritebackDirty_hits::total          662                       # number of WritebackDirty hits
system.l2cache.WritebackDirty_accesses::.writebacks          662                       # number of WritebackDirty accesses(hits+misses)
system.l2cache.WritebackDirty_accesses::total          662                       # number of WritebackDirty accesses(hits+misses)
system.l2cache.CleanEvict_mshr_misses::.writebacks           25                       # number of CleanEvict MSHR misses
system.l2cache.CleanEvict_mshr_misses::total           25                       # number of CleanEvict MSHR misses
system.l2cache.CleanEvict_mshr_miss_rate::.writebacks          inf                       # mshr miss rate for CleanEvict accesses
system.l2cache.CleanEvict_mshr_miss_rate::total          inf                       # mshr miss rate for CleanEvict accesses
system.l2cache.HardPFReq_mshr_misses::.l2cache.prefetcher           27                       # number of HardPFReq MSHR misses
system.l2cache.HardPFReq_mshr_misses::total           27                       # number of HardPFReq MSHR misses
system.l2cache.HardPFReq_mshr_miss_latency::.l2cache.prefetcher      1644366                       # number of HardPFReq MSHR miss cycles
system.l2cache.HardPFReq_mshr_miss_latency::total      1644366                       # number of HardPFReq MSHR miss cycles
system.l2cache.HardPFReq_mshr_miss_rate::.l2cache.prefetcher          inf                       # mshr miss rate for HardPFReq accesses
system.l2cache.HardPFReq_mshr_miss_rate::total          inf                       # mshr miss rate for HardPFReq accesses
system.l2cache.HardPFReq_avg_mshr_miss_latency::.l2cache.prefetcher 60902.444444                       # average HardPFReq mshr miss latency
system.l2cache.HardPFReq_avg_mshr_miss_latency::total 60902.444444                       # average HardPFReq mshr miss latency
system.l2cache.UpgradeReq_hits::.cpu.data            1                       # number of UpgradeReq hits
system.l2cache.UpgradeReq_hits::total               1                       # number of UpgradeReq hits
system.l2cache.UpgradeReq_accesses::.cpu.data            1                       # number of UpgradeReq accesses(hits+misses)
system.l2cache.UpgradeReq_accesses::total            1                       # number of UpgradeReq accesses(hits+misses)
system.l2cache.ReadExReq_hits::.cpu.data           90                       # number of ReadExReq hits
system.l2cache.ReadExReq_hits::total               90                       # number of ReadExReq hits
system.l2cache.ReadExReq_misses::.cpu.data           81                       # number of ReadExReq misses
system.l2cache.ReadExReq_misses::total             81                       # number of ReadExReq misses
system.l2cache.ReadExReq_miss_latency::.cpu.data      5521600                       # number of ReadExReq miss cycles
system.l2cache.ReadExReq_miss_latency::total      5521600                       # number of ReadExReq miss cycles
system.l2cache.ReadExReq_accesses::.cpu.data          171                       # number of ReadExReq accesses(hits+misses)
system.l2cache.ReadExReq_accesses::total          171                       # number of ReadExReq accesses(hits+misses)
system.l2cache.ReadExReq_miss_rate::.cpu.data     0.473684                       # miss rate for ReadExReq accesses
system.l2cache.ReadExReq_miss_rate::total     0.473684                       # miss rate for ReadExReq accesses
system.l2cache.ReadExReq_avg_miss_latency::.cpu.data 68167.901235                       # average ReadExReq miss latency
system.l2cache.ReadExReq_avg_miss_latency::total 68167.901235                       # average ReadExReq miss latency
system.l2cache.ReadExReq_mshr_misses::.cpu.data           81                       # number of ReadExReq MSHR misses
system.l2cache.ReadExReq_mshr_misses::total           81                       # number of ReadExReq MSHR misses
system.l2cache.ReadExReq_mshr_miss_latency::.cpu.data      4873600                       # number of ReadExReq MSHR miss cycles
system.l2cache.ReadExReq_mshr_miss_latency::total      4873600                       # number of ReadExReq MSHR miss cycles
system.l2cache.ReadExReq_mshr_miss_rate::.cpu.data     0.473684                       # mshr miss rate for ReadExReq accesses
system.l2cache.ReadExReq_mshr_miss_rate::total     0.473684                       # mshr miss rate for ReadExReq accesses
system.l2cache.ReadExReq_avg_mshr_miss_latency::.cpu.data 60167.901235                       # average ReadExReq mshr miss latency
system.l2cache.ReadExReq_avg_mshr_miss_latency::total 60167.901235                       # average ReadExReq mshr miss latency
system.l2cache.ReadSharedReq_hits::.cpu.inst        18081                       # number of ReadSharedReq hits
system.l2cache.ReadSharedReq_hits::.cpu.data          434                       # number of ReadSharedReq hits
system.l2cache.ReadSharedReq_hits::.cpu.dcache.prefetcher           86                       # number of ReadSharedReq hits
system.l2cache.ReadSharedReq_hits::total        18601                       # number of ReadSharedReq hits
system.l2cache.ReadSharedReq_misses::.cpu.inst          430                       # number of ReadSharedReq misses
system.l2cache.ReadSharedReq_misses::.cpu.data          212                       # number of ReadSharedReq misses
system.l2cache.ReadSharedReq_misses::.cpu.dcache.prefetcher           80                       # number of ReadSharedReq misses
system.l2cache.ReadSharedReq_misses::total          722                       # number of ReadSharedReq misses
system.l2cache.ReadSharedReq_miss_latency::.cpu.inst     28753200                       # number of ReadSharedReq miss cycles
system.l2cache.ReadSharedReq_miss_latency::.cpu.data     14284800                       # number of ReadSharedReq miss cycles
system.l2cache.ReadSharedReq_miss_latency::.cpu.dcache.prefetcher      5388337                       # number of ReadSharedReq miss cycles
system.l2cache.ReadSharedReq_miss_latency::total     48426337                       # number of ReadSharedReq miss cycles
system.l2cache.ReadSharedReq_accesses::.cpu.inst        18511                       # number of ReadSharedReq accesses(hits+misses)
system.l2cache.ReadSharedReq_accesses::.cpu.data          646                       # number of ReadSharedReq accesses(hits+misses)
system.l2cache.ReadSharedReq_accesses::.cpu.dcache.prefetcher          166                       # number of ReadSharedReq accesses(hits+misses)
system.l2cache.ReadSharedReq_accesses::total        19323                       # number of ReadSharedReq accesses(hits+misses)
system.l2cache.ReadSharedReq_miss_rate::.cpu.inst     0.023229                       # miss rate for ReadSharedReq accesses
system.l2cache.ReadSharedReq_miss_rate::.cpu.data     0.328173                       # miss rate for ReadSharedReq accesses
system.l2cache.ReadSharedReq_miss_rate::.cpu.dcache.prefetcher     0.481928                       # miss rate for ReadSharedReq accesses
system.l2cache.ReadSharedReq_miss_rate::total     0.037365                       # miss rate for ReadSharedReq accesses
system.l2cache.ReadSharedReq_avg_miss_latency::.cpu.inst 66867.906977                       # average ReadSharedReq miss latency
system.l2cache.ReadSharedReq_avg_miss_latency::.cpu.data 67381.132075                       # average ReadSharedReq miss latency
system.l2cache.ReadSharedReq_avg_miss_latency::.cpu.dcache.prefetcher 67354.212500                       # average ReadSharedReq miss latency
system.l2cache.ReadSharedReq_avg_miss_latency::total 67072.488920                       # average ReadSharedReq miss latency
system.l2cache.ReadSharedReq_mshr_hits::.cpu.data            1                       # number of ReadSharedReq MSHR hits
system.l2cache.ReadSharedReq_mshr_hits::total            1                       # number of ReadSharedReq MSHR hits
system.l2cache.ReadSharedReq_mshr_misses::.cpu.inst          430                       # number of ReadSharedReq MSHR misses
system.l2cache.ReadSharedReq_mshr_misses::.cpu.data          211                       # number of ReadSharedReq MSHR misses
system.l2cache.ReadSharedReq_mshr_misses::.cpu.dcache.prefetcher           80                       # number of ReadSharedReq MSHR misses
system.l2cache.ReadSharedReq_mshr_misses::total          721                       # number of ReadSharedReq MSHR misses
system.l2cache.ReadSharedReq_mshr_miss_latency::.cpu.inst     25321200                       # number of ReadSharedReq MSHR miss cycles
system.l2cache.ReadSharedReq_mshr_miss_latency::.cpu.data     12540400                       # number of ReadSharedReq MSHR miss cycles
system.l2cache.ReadSharedReq_mshr_miss_latency::.cpu.dcache.prefetcher      4748337                       # number of ReadSharedReq MSHR miss cycles
system.l2cache.ReadSharedReq_mshr_miss_latency::total     42609937                       # number of ReadSharedReq MSHR miss cycles
system.l2cache.ReadSharedReq_mshr_miss_rate::.cpu.inst     0.023229                       # mshr miss rate for ReadSharedReq accesses
system.l2cache.ReadSharedReq_mshr_miss_rate::.cpu.data     0.326625                       # mshr miss rate for ReadSharedReq accesses
system.l2cache.ReadSharedReq_mshr_miss_rate::.cpu.dcache.prefetcher     0.481928                       # mshr miss rate for ReadSharedReq accesses
system.l2cache.ReadSharedReq_mshr_miss_rate::total     0.037313                       # mshr miss rate for ReadSharedReq accesses
system.l2cache.ReadSharedReq_avg_mshr_miss_latency::.cpu.inst 58886.511628                       # average ReadSharedReq mshr miss latency
system.l2cache.ReadSharedReq_avg_mshr_miss_latency::.cpu.data 59433.175355                       # average ReadSharedReq mshr miss latency
system.l2cache.ReadSharedReq_avg_mshr_miss_latency::.cpu.dcache.prefetcher 59354.212500                       # average ReadSharedReq mshr miss latency
system.l2cache.ReadSharedReq_avg_mshr_miss_latency::total 59098.386963                       # average ReadSharedReq mshr miss latency
system.l2cache.prefetcher.pwrStateResidencyTicks::UNDEFINED   1487293200                       # Cumulative time (in ticks) in various power states
system.l2cache.tags.pwrStateResidencyTicks::UNDEFINED   1487293200                       # Cumulative time (in ticks) in various power states
system.l2cache.tags.tagsinuse                    4096                       # Cycle average of tags in use
system.l2cache.tags.total_refs                  50689                       # Total number of references to valid blocks.
system.l2cache.tags.sampled_refs                 4941                       # Sample count of references to valid blocks.
system.l2cache.tags.avg_refs                10.258854                       # Average number of references to valid blocks.
system.l2cache.tags.warmup_cycle                    0                       # Cycle when the warmup percentage was hit.
system.l2cache.tags.occ_blocks::.writebacks    44.207116                       # Average occupied blocks per requestor
system.l2cache.tags.occ_blocks::.cpu.inst   986.227412                       # Average occupied blocks per requestor
system.l2cache.tags.occ_blocks::.cpu.data  1897.606223                       # Average occupied blocks per requestor
system.l2cache.tags.occ_blocks::.cpu.dcache.prefetcher   752.602095                       # Average occupied blocks per requestor
system.l2cache.tags.occ_blocks::.l2cache.prefetcher   415.357155                       # Average occupied blocks per requestor
system.l2cache.tags.occ_percent::.writebacks     0.010793                       # Average percentage of cache occupancy
system.l2cache.tags.occ_percent::.cpu.inst     0.240778                       # Average percentage of cache occupancy
system.l2cache.tags.occ_percent::.cpu.data     0.463283                       # Average percentage of cache occupancy
system.l2cache.tags.occ_percent::.cpu.dcache.prefetcher     0.183741                       # Average percentage of cache occupancy
system.l2cache.tags.occ_percent::.l2cache.prefetcher     0.101406                       # Average percentage of cache occupancy
system.l2cache.tags.occ_percent::total              1                       # Average percentage of cache occupancy
system.l2cache.tags.occ_task_id_blocks::1022         1093                       # Occupied blocks per task id
system.l2cache.tags.occ_task_id_blocks::1024         3003                       # Occupied blocks per task id
system.l2cache.tags.age_task_id_blocks_1022::0           13                       # Occupied blocks per task id
system.l2cache.tags.age_task_id_blocks_1022::1            3                       # Occupied blocks per task id
system.l2cache.tags.age_task_id_blocks_1022::2            2                       # Occupied blocks per task id
system.l2cache.tags.age_task_id_blocks_1022::3         1075                       # Occupied blocks per task id
system.l2cache.tags.age_task_id_blocks_1024::0          179                       # Occupied blocks per task id
system.l2cache.tags.age_task_id_blocks_1024::1           38                       # Occupied blocks per task id
system.l2cache.tags.age_task_id_blocks_1024::2           21                       # Occupied blocks per task id
system.l2cache.tags.age_task_id_blocks_1024::3         2765                       # Occupied blocks per task id
system.l2cache.tags.occ_task_id_percent::1022     0.266846                       # Percentage of cache occupancy per task id
system.l2cache.tags.occ_task_id_percent::1024     0.733154                       # Percentage of cache occupancy per task id
system.l2cache.tags.tag_accesses               312733                       # Number of tag accesses
system.l2cache.tags.data_accesses              312733                       # Number of data accesses
system.mem_ctrl.pwrStateResidencyTicks::UNDEFINED   1487293200                       # Cumulative time (in ticks) in various power states
system.mem_ctrl.bytes_read::.cpu.inst           27456                       # Number of bytes read from this memory
system.mem_ctrl.bytes_read::.cpu.data           18688                       # Number of bytes read from this memory
system.mem_ctrl.bytes_read::.cpu.dcache.prefetcher         5120                       # Number of bytes read from this memory
system.mem_ctrl.bytes_read::.l2cache.prefetcher         1728                       # Number of bytes read from this memory
system.mem_ctrl.bytes_read::total               52992                       # Number of bytes read from this memory
system.mem_ctrl.bytes_inst_read::.cpu.inst        27456                       # Number of instructions bytes read from this memory
system.mem_ctrl.bytes_inst_read::total          27456                       # Number of instructions bytes read from this memory
system.mem_ctrl.bytes_written::.writebacks         3392                       # Number of bytes written to this memory
system.mem_ctrl.bytes_written::total             3392                       # Number of bytes written to this memory
system.mem_ctrl.num_reads::.cpu.inst              429                       # Number of read requests responded to by this memory
system.mem_ctrl.num_reads::.cpu.data              292                       # Number of read requests responded to by this memory
system.mem_ctrl.num_reads::.cpu.dcache.prefetcher           80                       # Number of read requests responded to by this memory
system.mem_ctrl.num_reads::.l2cache.prefetcher           27                       # Number of read requests responded to by this memory
system.mem_ctrl.num_reads::total                  828                       # Number of read requests responded to by this memory
system.mem_ctrl.num_writes::.writebacks            53                       # Number of write requests responded to by this memory
system.mem_ctrl.num_writes::total                  53                       # Number of write requests responded to by this memory
system.mem_ctrl.bw_read::.cpu.inst           18460382                       # Total read bandwidth from this memory (bytes/s)
system.mem_ctrl.bw_read::.cpu.data           12565108                       # Total read bandwidth from this memory (bytes/s)
system.mem_ctrl.bw_read::.cpu.dcache.prefetcher      3442495                       # Total read bandwidth from this memory (bytes/s)
system.mem_ctrl.bw_read::.l2cache.prefetcher      1161842                       # Total read bandwidth from this memory (bytes/s)
system.mem_ctrl.bw_read::total               35629827                       # Total read bandwidth from this memory (bytes/s)
system.mem_ctrl.bw_inst_read::.cpu.inst      18460382                       # Instruction read bandwidth from this memory (bytes/s)
system.mem_ctrl.bw_inst_read::total          18460382                       # Instruction read bandwidth from this memory (bytes/s)
system.mem_ctrl.bw_write::.writebacks         2280653                       # Write bandwidth from this memory (bytes/s)
system.mem_ctrl.bw_write::total               2280653                       # Write bandwidth from this memory (bytes/s)
system.mem_ctrl.bw_total::.writebacks         2280653                       # Total bandwidth to/from this memory (bytes/s)
system.mem_ctrl.bw_total::.cpu.inst          18460382                       # Total bandwidth to/from this memory (bytes/s)
system.mem_ctrl.bw_total::.cpu.data          12565108                       # Total bandwidth to/from this memory (bytes/s)
system.mem_ctrl.bw_total::.cpu.dcache.prefetcher      3442495                       # Total bandwidth to/from this memory (bytes/s)
system.mem_ctrl.bw_total::.l2cache.prefetcher      1161842                       # Total bandwidth to/from this memory (bytes/s)
system.mem_ctrl.bw_total::total              37910481                       # Total bandwidth to/from this memory (bytes/s)

---------- End Simulation Statistics   ----------
