
---------- Begin Simulation Statistics ----------
final_tick                                 2606196800                       # Number of ticks from beginning of simulation (restored from checkpoints and never reset)
host_inst_rate                                 208502                       # Simulator instruction rate (inst/s)
host_mem_usage                                4406872                       # Number of bytes of host memory used
host_op_rate                                   418262                       # Simulator op (including micro ops) rate (op/s)
host_seconds                                    36.18                       # Real time elapsed on the host
host_tick_rate                               72031545                       # Simulator tick rate (ticks/s)
sim_freq                                 1000000000000                       # Frequency of simulated ticks
sim_insts                                     7543878                       # Number of instructions simulated
sim_ops                                      15133274                       # Number of ops (including micro ops) simulated
sim_seconds                                  0.002606                       # Number of seconds simulated
sim_ticks                                  2606196800                       # Number of ticks simulated
system.cpu.branchPred.BTBCorrect                    0                       # Number of correct BTB predictions (this stat may not work properly.
system.cpu.branchPred.BTBHitPct              0.000000                       # BTB Hit Percentage
system.cpu.branchPred.BTBHits                       0                       # Number of BTB hits
system.cpu.branchPred.BTBLookups              1587281                       # Number of BTB lookups
system.cpu.branchPred.RASInCorrect                  8                       # Number of incorrect RAS predictions.
system.cpu.branchPred.condIncorrect             40908                       # Number of conditional branches incorrect
system.cpu.branchPred.condPredicted           2240066                       # Number of conditional branches predicted
system.cpu.branchPred.indirectHits            1113474                       # Number of indirect target hits.
system.cpu.branchPred.indirectLookups         1587281                       # Number of indirect predictor lookups.
system.cpu.branchPred.indirectMisses           473807                       # Number of indirect misses.
system.cpu.branchPred.lookups                 2342001                       # Number of BP lookups
system.cpu.branchPred.usedRAS                   48951                       # Number of times the RAS was used to get a target.
system.cpu.branchPredindirectMispredicted        24541                       # Number of mispredicted indirect branches.
system.cpu.cc_regfile_reads                  11558712                       # number of cc regfile reads
system.cpu.cc_regfile_writes                  7315262                       # number of cc regfile writes
system.cpu.commit.amos                              0                       # Number of atomic instructions committed
system.cpu.commit.branchMispredicts             41017                       # The number of times a branch was mispredicted
system.cpu.commit.branches                    2137596                       # Number of branches committed
system.cpu.commit.bw_lim_events               2641044                       # number cycles where commit BW limit reached
system.cpu.commit.commitNonSpecStalls             781                       # The number of times commit has been forced to stall to communicate backwards
system.cpu.commit.commitSquashedInsts         1133074                       # The number of squashed insts skipped by commit
system.cpu.commit.committedInsts              7543878                       # Number of instructions committed
system.cpu.commit.committedOps               15133274                       # Number of ops (including micro ops) committed
system.cpu.commit.committed_per_cycle::samples      6035967                       # Number of insts commited each cycle
system.cpu.commit.committed_per_cycle::mean     2.507183                       # Number of insts commited each cycle
system.cpu.commit.committed_per_cycle::stdev     1.640973                       # Number of insts commited each cycle
system.cpu.commit.committed_per_cycle::underflows            0      0.00%      0.00% # Number of insts commited each cycle
system.cpu.commit.committed_per_cycle::0      1418969     23.51%     23.51% # Number of insts commited each cycle
system.cpu.commit.committed_per_cycle::1       474514      7.86%     31.37% # Number of insts commited each cycle
system.cpu.commit.committed_per_cycle::2       409736      6.79%     38.16% # Number of insts commited each cycle
system.cpu.commit.committed_per_cycle::3      1091704     18.09%     56.24% # Number of insts commited each cycle
system.cpu.commit.committed_per_cycle::4      2641044     43.76%    100.00% # Number of insts commited each cycle
system.cpu.commit.committed_per_cycle::overflows            0      0.00%    100.00% # Number of insts commited each cycle
system.cpu.commit.committed_per_cycle::min_value            0                       # Number of insts commited each cycle
system.cpu.commit.committed_per_cycle::max_value            4                       # Number of insts commited each cycle
system.cpu.commit.committed_per_cycle::total      6035967                       # Number of insts commited each cycle
system.cpu.commit.fp_insts                     240046                       # Number of committed floating point instructions.
system.cpu.commit.function_calls                45348                       # Number of function calls committed.
system.cpu.commit.int_insts                  14936080                       # Number of committed integer instructions.
system.cpu.commit.loads                       1647747                       # Number of loads committed
system.cpu.commit.membars                           1                       # Number of memory barriers committed
system.cpu.commit.op_class_0::No_OpClass        39464      0.26%      0.26% # Class of committed instruction
system.cpu.commit.op_class_0::IntAlu         12733675     84.14%     84.40% # Class of committed instruction
system.cpu.commit.op_class_0::IntMult           14505      0.10%     84.50% # Class of committed instruction
system.cpu.commit.op_class_0::IntDiv            37936      0.25%     84.75% # Class of committed instruction
system.cpu.commit.op_class_0::FloatAdd           8969      0.06%     84.81% # Class of committed instruction
system.cpu.commit.op_class_0::FloatCmp              0      0.00%     84.81% # Class of committed instruction
system.cpu.commit.op_class_0::FloatCvt           1280      0.01%     84.82% # Class of committed instruction
system.cpu.commit.op_class_0::FloatMult             0      0.00%     84.82% # Class of committed instruction
system.cpu.commit.op_class_0::FloatMultAcc            0      0.00%     84.82% # Class of committed instruction
system.cpu.commit.op_class_0::FloatDiv              0      0.00%     84.82% # Class of committed instruction
system.cpu.commit.op_class_0::FloatMisc             0      0.00%     84.82% # Class of committed instruction
system.cpu.commit.op_class_0::FloatSqrt             0      0.00%     84.82% # Class of committed instruction
system.cpu.commit.op_class_0::SimdAdd            6268      0.04%     84.86% # Class of committed instruction
system.cpu.commit.op_class_0::SimdAddAcc            0      0.00%     84.86% # Class of committed instruction
system.cpu.commit.op_class_0::SimdAlu           47266      0.31%     85.17% # Class of committed instruction
system.cpu.commit.op_class_0::SimdCmp               0      0.00%     85.17% # Class of committed instruction
system.cpu.commit.op_class_0::SimdCvt           39238      0.26%     85.43% # Class of committed instruction
system.cpu.commit.op_class_0::SimdMisc          63617      0.42%     85.85% # Class of committed instruction
system.cpu.commit.op_class_0::SimdMult              0      0.00%     85.85% # Class of committed instruction
system.cpu.commit.op_class_0::SimdMultAcc            0      0.00%     85.85% # Class of committed instruction
system.cpu.commit.op_class_0::SimdShift          1144      0.01%     85.86% # Class of committed instruction
system.cpu.commit.op_class_0::SimdShiftAcc            0      0.00%     85.86% # Class of committed instruction
system.cpu.commit.op_class_0::SimdDiv               0      0.00%     85.86% # Class of committed instruction
system.cpu.commit.op_class_0::SimdSqrt              0      0.00%     85.86% # Class of committed instruction
system.cpu.commit.op_class_0::SimdFloatAdd            0      0.00%     85.86% # Class of committed instruction
system.cpu.commit.op_class_0::SimdFloatAlu            0      0.00%     85.86% # Class of committed instruction
system.cpu.commit.op_class_0::SimdFloatCmp            0      0.00%     85.86% # Class of committed instruction
system.cpu.commit.op_class_0::SimdFloatCvt            0      0.00%     85.86% # Class of committed instruction
system.cpu.commit.op_class_0::SimdFloatDiv            0      0.00%     85.86% # Class of committed instruction
system.cpu.commit.op_class_0::SimdFloatMisc            0      0.00%     85.86% # Class of committed instruction
system.cpu.commit.op_class_0::SimdFloatMult            0      0.00%     85.86% # Class of committed instruction
system.cpu.commit.op_class_0::SimdFloatMultAcc            0      0.00%     85.86% # Class of committed instruction
system.cpu.commit.op_class_0::SimdFloatSqrt            0      0.00%     85.86% # Class of committed instruction
system.cpu.commit.op_class_0::SimdReduceAdd            0      0.00%     85.86% # Class of committed instruction
system.cpu.commit.op_class_0::SimdReduceAlu            0      0.00%     85.86% # Class of committed instruction
system.cpu.commit.op_class_0::SimdReduceCmp            0      0.00%     85.86% # Class of committed instruction
system.cpu.commit.op_class_0::SimdFloatReduceAdd            0      0.00%     85.86% # Class of committed instruction
system.cpu.commit.op_class_0::SimdFloatReduceCmp            0      0.00%     85.86% # Class of committed instruction
system.cpu.commit.op_class_0::SimdAes               0      0.00%     85.86% # Class of committed instruction
system.cpu.commit.op_class_0::SimdAesMix            0      0.00%     85.86% # Class of committed instruction
system.cpu.commit.op_class_0::SimdSha1Hash            0      0.00%     85.86% # Class of committed instruction
system.cpu.commit.op_class_0::SimdSha1Hash2            0      0.00%     85.86% # Class of committed instruction
system.cpu.commit.op_class_0::SimdSha256Hash            0      0.00%     85.86% # Class of committed instruction
system.cpu.commit.op_class_0::SimdSha256Hash2            0      0.00%     85.86% # Class of committed instruction
system.cpu.commit.op_class_0::SimdShaSigma2            0      0.00%     85.86% # Class of committed instruction
system.cpu.commit.op_class_0::SimdShaSigma3            0      0.00%     85.86% # Class of committed instruction
system.cpu.commit.op_class_0::SimdPredAlu            0      0.00%     85.86% # Class of committed instruction
system.cpu.commit.op_class_0::MemRead         1610333     10.64%     96.50% # Class of committed instruction
system.cpu.commit.op_class_0::MemWrite         476140      3.15%     99.65% # Class of committed instruction
system.cpu.commit.op_class_0::FloatMemRead        37414      0.25%     99.89% # Class of committed instruction
system.cpu.commit.op_class_0::FloatMemWrite        16025      0.11%    100.00% # Class of committed instruction
system.cpu.commit.op_class_0::IprAccess             0      0.00%    100.00% # Class of committed instruction
system.cpu.commit.op_class_0::InstPrefetch            0      0.00%    100.00% # Class of committed instruction
system.cpu.commit.op_class_0::total          15133274                       # Class of committed instruction
system.cpu.commit.refs                        2139912                       # Number of memory references committed
system.cpu.commit.swp_count                         0                       # Number of s/w prefetches committed
system.cpu.commit.vec_insts                         0                       # Number of committed Vector instructions.
system.cpu.committedInsts                     7543878                       # Number of Instructions Simulated
system.cpu.committedOps                      15133274                       # Number of Ops (including micro ops) Simulated
system.cpu.cpi                               0.863680                       # CPI: Cycles Per Instruction
system.cpu.cpi_total                         0.863680                       # CPI: Total CPI of All Threads
system.cpu.dcache.prefetcher.num_hwpf_issued         8280                       # number of hwpf issued
system.cpu.dcache.prefetcher.pfBufferHit        33681                       # number of redundant prefetches already in prefetch queue
system.cpu.dcache.prefetcher.pfIdentified        49402                       # number of prefetch candidates identified
system.cpu.dcache.prefetcher.pfInCache              0                       # number of redundant prefetches already in cache/mshr dropped
system.cpu.dcache.prefetcher.pfRemovedFull            0                       # number of prefetches dropped due to prefetch queue size
system.cpu.dcache.prefetcher.pfSpanPage          4798                       # number of prefetches that crossed the page
system.cpu.decode.BlockedCycles               1102174                       # Number of cycles decode is blocked
system.cpu.decode.DecodedInsts               16615379                       # Number of instructions handled by decode
system.cpu.decode.IdleCycles                   692004                       # Number of cycles decode is idle
system.cpu.decode.RunCycles                   4408854                       # Number of cycles decode is running
system.cpu.decode.SquashCycles                  41105                       # Number of cycles decode is squashing
system.cpu.decode.UnblockCycles                104075                       # Number of cycles decode is unblocking
system.cpu.dtb.rdAccesses                     1754867                       # TLB accesses on read requests
system.cpu.dtb.rdMisses                          2046                       # TLB misses on read requests
system.cpu.dtb.wrAccesses                      519279                       # TLB accesses on write requests
system.cpu.dtb.wrMisses                           174                       # TLB misses on write requests
system.cpu.fetch.Branches                     2342001                       # Number of branches that fetch encountered
system.cpu.fetch.CacheLines                    599938                       # Number of cache lines fetched
system.cpu.fetch.Cycles                       5597709                       # Number of cycles fetch has run and was not squashing or blocked
system.cpu.fetch.IcacheSquashes                  6065                       # Number of outstanding Icache misses that were squashed
system.cpu.fetch.Insts                        8521002                       # Number of instructions fetch has processed
system.cpu.fetch.MiscStallCycles                  139                       # Number of cycles fetch has spent waiting on interrupts, or bad addresses, or out of MSHRs
system.cpu.fetch.PendingQuiesceStallCycles            8                       # Number of stall cycles due to pending quiesce instructions
system.cpu.fetch.PendingTrapStallCycles           753                       # Number of stall cycles due to pending traps
system.cpu.fetch.SquashCycles                   82210                       # Number of cycles fetch has spent squashing
system.cpu.fetch.branchRate                  0.359451                       # Number of branch fetches per cycle
system.cpu.fetch.icacheStallCycles             708498                       # Number of cycles fetch is stalled on an Icache miss
system.cpu.fetch.predictedBranches            1162425                       # Number of branches that fetch has predicted taken
system.cpu.fetch.rate                        1.307806                       # Number of inst fetches per cycle
system.cpu.fetch.rateDist::samples            6348212                       # Number of instructions fetched each cycle (Total)
system.cpu.fetch.rateDist::mean              2.668344                       # Number of instructions fetched each cycle (Total)
system.cpu.fetch.rateDist::stdev             1.728841                       # Number of instructions fetched each cycle (Total)
system.cpu.fetch.rateDist::underflows               0      0.00%      0.00% # Number of instructions fetched each cycle (Total)
system.cpu.fetch.rateDist::0                  1690830     26.63%     26.63% # Number of instructions fetched each cycle (Total)
system.cpu.fetch.rateDist::1                   207962      3.28%     29.91% # Number of instructions fetched each cycle (Total)
system.cpu.fetch.rateDist::2                   120039      1.89%     31.80% # Number of instructions fetched each cycle (Total)
system.cpu.fetch.rateDist::3                   826351     13.02%     44.82% # Number of instructions fetched each cycle (Total)
system.cpu.fetch.rateDist::4                  3503030     55.18%    100.00% # Number of instructions fetched each cycle (Total)
system.cpu.fetch.rateDist::overflows                0      0.00%    100.00% # Number of instructions fetched each cycle (Total)
system.cpu.fetch.rateDist::min_value                0                       # Number of instructions fetched each cycle (Total)
system.cpu.fetch.rateDist::max_value                4                       # Number of instructions fetched each cycle (Total)
system.cpu.fetch.rateDist::total              6348212                       # Number of instructions fetched each cycle (Total)
system.cpu.fp_regfile_reads                    407137                       # number of floating regfile reads
system.cpu.fp_regfile_writes                   213970                       # number of floating regfile writes
system.cpu.fuPool.fu_ticks_busy::IntALU(0)    886224400                       # Total ticks fu was busy
system.cpu.fuPool.fu_ticks_busy::IntALU(1)    886224400                       # Total ticks fu was busy
system.cpu.fuPool.fu_ticks_busy::IntALU(2)    886224400                       # Total ticks fu was busy
system.cpu.fuPool.fu_ticks_busy::IntALU(3)    886224400                       # Total ticks fu was busy
system.cpu.fuPool.fu_ticks_busy::IntALU(4)    886224400                       # Total ticks fu was busy
system.cpu.fuPool.fu_ticks_busy::IntALU(5)    886224400                       # Total ticks fu was busy
system.cpu.fuPool.fu_ticks_busy::IntMultDiv(0)     11273200                       # Total ticks fu was busy
system.cpu.fuPool.fu_ticks_busy::IntMultDiv(1)     11272800                       # Total ticks fu was busy
system.cpu.fuPool.fu_ticks_busy::FP_ALU(0)      1180800                       # Total ticks fu was busy
system.cpu.fuPool.fu_ticks_busy::FP_ALU(1)      1180800                       # Total ticks fu was busy
system.cpu.fuPool.fu_ticks_busy::FP_ALU(2)      1180400                       # Total ticks fu was busy
system.cpu.fuPool.fu_ticks_busy::FP_ALU(3)      1180000                       # Total ticks fu was busy
system.cpu.fuPool.fu_ticks_busy::FP_MultDiv(0)            0                       # Total ticks fu was busy
system.cpu.fuPool.fu_ticks_busy::FP_MultDiv(1)            0                       # Total ticks fu was busy
system.cpu.fuPool.fu_ticks_busy::SIMD_Unit(0)     16870400                       # Total ticks fu was busy
system.cpu.fuPool.fu_ticks_busy::SIMD_Unit(1)     16419600                       # Total ticks fu was busy
system.cpu.fuPool.fu_ticks_busy::SIMD_Unit(2)     16685200                       # Total ticks fu was busy
system.cpu.fuPool.fu_ticks_busy::SIMD_Unit(3)     16221200                       # Total ticks fu was busy
system.cpu.fuPool.fu_ticks_busy::PredALU(0)            0                       # Total ticks fu was busy
system.cpu.fuPool.fu_ticks_busy::RdWrPort(0)    229642000                       # Total ticks fu was busy
system.cpu.fuPool.fu_ticks_busy::RdWrPort(1)    229574000                       # Total ticks fu was busy
system.cpu.fuPool.fu_ticks_busy::RdWrPort(2)    229668400                       # Total ticks fu was busy
system.cpu.fuPool.fu_ticks_busy::RdWrPort(3)    229662400                       # Total ticks fu was busy
system.cpu.fuPool.fu_ticks_busy::IprPort(0)            0                       # Total ticks fu was busy
system.cpu.fuPool.fu_ticks_busy::total     6329357600                       # Total ticks fu was busy
system.cpu.icache.prefetcher.num_hwpf_issued            0                       # number of hwpf issued
system.cpu.icache.prefetcher.pfBufferHit            0                       # number of redundant prefetches already in prefetch queue
system.cpu.icache.prefetcher.pfIdentified            0                       # number of prefetch candidates identified
system.cpu.icache.prefetcher.pfInCache              0                       # number of redundant prefetches already in cache/mshr dropped
system.cpu.icache.prefetcher.pfRemovedFull            0                       # number of prefetches dropped due to prefetch queue size
system.cpu.icache.prefetcher.pfSpanPage             0                       # number of prefetches that crossed the page
system.cpu.idleCycles                          167281                       # Total number of cycles that the CPU has spent unscheduled due to idling
system.cpu.iew.branchMispredicts                49354                       # Number of branch mispredicts detected at execute
system.cpu.iew.exec_branches                  2177634                       # Number of branches executed
system.cpu.iew.exec_nop                             0                       # number of nop insts executed
system.cpu.iew.exec_rate                     2.426024                       # Inst execution rate
system.cpu.iew.exec_refs                      2270805                       # number of memory reference insts executed
system.cpu.iew.exec_stores                     518795                       # Number of stores executed
system.cpu.iew.exec_swp                             0                       # number of swp insts executed
system.cpu.iew.iewBlockCycles                  754121                       # Number of cycles IEW is blocking
system.cpu.iew.iewDispLoadInsts               1798390                       # Number of dispatched load instructions
system.cpu.iew.iewDispNonSpecInsts               1915                       # Number of dispatched non-speculative instructions
system.cpu.iew.iewDispSquashedInsts              3509                       # Number of squashed instructions skipped by dispatch
system.cpu.iew.iewDispStoreInsts               541257                       # Number of dispatched store instructions
system.cpu.iew.iewDispatchedInsts            16266300                       # Number of instructions dispatched to IQ
system.cpu.iew.iewExecLoadInsts               1752010                       # Number of load instructions executed
system.cpu.iew.iewExecSquashedInsts             66008                       # Number of squashed instructions skipped in execute
system.cpu.iew.iewExecutedInsts              15806743                       # Number of executed instructions
system.cpu.iew.iewIQFullEvents                   3371                       # Number of times the IQ has become full, causing a stall
system.cpu.iew.iewIdleCycles                        0                       # Number of cycles IEW is idle
system.cpu.iew.iewLSQFullEvents                 12942                       # Number of times the LSQ has become full, causing a stall
system.cpu.iew.iewSquashCycles                  41105                       # Number of cycles IEW is squashing
system.cpu.iew.iewUnblockCycles                 19179                       # Number of cycles IEW is unblocking
system.cpu.iew.lsq.thread0.blockedLoads             0                       # Number of blocked loads due to partial load-store forwarding
system.cpu.iew.lsq.thread0.cacheBlocked           590                       # Number of times an access to memory failed due to the cache being blocked
system.cpu.iew.lsq.thread0.forwLoads            57287                       # Number of loads that had data forwarded from stores
system.cpu.iew.lsq.thread0.ignoredResponses          272                       # Number of memory responses ignored because the instruction is squashed
system.cpu.iew.lsq.thread0.invAddrLoads             0                       # Number of loads ignored due to an invalid address
system.cpu.iew.lsq.thread0.invAddrSwpfs             0                       # Number of software prefetches ignored due to an invalid address
system.cpu.iew.lsq.thread0.memOrderViolation           98                       # Number of memory ordering violations
system.cpu.iew.lsq.thread0.rescheduledLoads           51                       # Number of loads that were rescheduled
system.cpu.iew.lsq.thread0.squashedLoads       150641                       # Number of loads squashed
system.cpu.iew.lsq.thread0.squashedStores        49091                       # Number of stores squashed
system.cpu.iew.memOrderViolationEvents             98                       # Number of memory order violations
system.cpu.iew.predictedNotTakenIncorrect        35996                       # Number of branches that were predicted not taken incorrectly
system.cpu.iew.predictedTakenIncorrect          13358                       # Number of branches that were predicted taken incorrectly
system.cpu.iew.wb_consumers                  18694759                       # num instructions consuming a value
system.cpu.iew.wb_count                      15774761                       # cumulative count of insts written-back
system.cpu.iew.wb_fanout                     0.658733                       # average fanout of values written-back
system.cpu.iew.wb_producers                  12314858                       # num instructions producing a value
system.cpu.iew.wb_rate                       2.421115                       # insts written-back per cycle
system.cpu.iew.wb_sent                       15785091                       # cumulative count of insts sent to commit
system.cpu.int_regfile_reads                 20843718                       # number of integer regfile reads
system.cpu.int_regfile_writes                12943032                       # number of integer regfile writes
system.cpu.ipc                               1.157837                       # IPC: Instructions Per Cycle
system.cpu.ipc_total                         1.157837                       # IPC: Total IPC of All Threads
system.cpu.iq.FU_type_0::No_OpClass             49357      0.31%      0.31% # Type of FU issued
system.cpu.iq.FU_type_0::IntAlu              13293367     83.75%     84.06% # Type of FU issued
system.cpu.iq.FU_type_0::IntMult                14572      0.09%     84.15% # Type of FU issued
system.cpu.iq.FU_type_0::IntDiv                 41793      0.26%     84.42% # Type of FU issued
system.cpu.iq.FU_type_0::FloatAdd               10487      0.07%     84.48% # Type of FU issued
system.cpu.iq.FU_type_0::FloatCmp                   0      0.00%     84.48% # Type of FU issued
system.cpu.iq.FU_type_0::FloatCvt                1318      0.01%     84.49% # Type of FU issued
system.cpu.iq.FU_type_0::FloatMult                  0      0.00%     84.49% # Type of FU issued
system.cpu.iq.FU_type_0::FloatMultAcc               0      0.00%     84.49% # Type of FU issued
system.cpu.iq.FU_type_0::FloatDiv                   0      0.00%     84.49% # Type of FU issued
system.cpu.iq.FU_type_0::FloatMisc                  0      0.00%     84.49% # Type of FU issued
system.cpu.iq.FU_type_0::FloatSqrt                  0      0.00%     84.49% # Type of FU issued
system.cpu.iq.FU_type_0::SimdAdd                 6933      0.04%     84.53% # Type of FU issued
system.cpu.iq.FU_type_0::SimdAddAcc                 0      0.00%     84.53% # Type of FU issued
system.cpu.iq.FU_type_0::SimdAlu                51056      0.32%     84.86% # Type of FU issued
system.cpu.iq.FU_type_0::SimdCmp                    0      0.00%     84.86% # Type of FU issued
system.cpu.iq.FU_type_0::SimdCvt                41045      0.26%     85.11% # Type of FU issued
system.cpu.iq.FU_type_0::SimdMisc               64222      0.40%     85.52% # Type of FU issued
system.cpu.iq.FU_type_0::SimdMult                   0      0.00%     85.52% # Type of FU issued
system.cpu.iq.FU_type_0::SimdMultAcc                0      0.00%     85.52% # Type of FU issued
system.cpu.iq.FU_type_0::SimdShift               2235      0.01%     85.53% # Type of FU issued
system.cpu.iq.FU_type_0::SimdShiftAcc               0      0.00%     85.53% # Type of FU issued
system.cpu.iq.FU_type_0::SimdDiv                    0      0.00%     85.53% # Type of FU issued
system.cpu.iq.FU_type_0::SimdSqrt                   0      0.00%     85.53% # Type of FU issued
system.cpu.iq.FU_type_0::SimdFloatAdd               0      0.00%     85.53% # Type of FU issued
system.cpu.iq.FU_type_0::SimdFloatAlu               0      0.00%     85.53% # Type of FU issued
system.cpu.iq.FU_type_0::SimdFloatCmp               0      0.00%     85.53% # Type of FU issued
system.cpu.iq.FU_type_0::SimdFloatCvt               0      0.00%     85.53% # Type of FU issued
system.cpu.iq.FU_type_0::SimdFloatDiv               0      0.00%     85.53% # Type of FU issued
system.cpu.iq.FU_type_0::SimdFloatMisc              0      0.00%     85.53% # Type of FU issued
system.cpu.iq.FU_type_0::SimdFloatMult              0      0.00%     85.53% # Type of FU issued
system.cpu.iq.FU_type_0::SimdFloatMultAcc            0      0.00%     85.53% # Type of FU issued
system.cpu.iq.FU_type_0::SimdFloatSqrt              0      0.00%     85.53% # Type of FU issued
system.cpu.iq.FU_type_0::SimdReduceAdd              0      0.00%     85.53% # Type of FU issued
system.cpu.iq.FU_type_0::SimdReduceAlu              0      0.00%     85.53% # Type of FU issued
system.cpu.iq.FU_type_0::SimdReduceCmp              0      0.00%     85.53% # Type of FU issued
system.cpu.iq.FU_type_0::SimdFloatReduceAdd            0      0.00%     85.53% # Type of FU issued
system.cpu.iq.FU_type_0::SimdFloatReduceCmp            0      0.00%     85.53% # Type of FU issued
system.cpu.iq.FU_type_0::SimdAes                    0      0.00%     85.53% # Type of FU issued
system.cpu.iq.FU_type_0::SimdAesMix                 0      0.00%     85.53% # Type of FU issued
system.cpu.iq.FU_type_0::SimdSha1Hash               0      0.00%     85.53% # Type of FU issued
system.cpu.iq.FU_type_0::SimdSha1Hash2              0      0.00%     85.53% # Type of FU issued
system.cpu.iq.FU_type_0::SimdSha256Hash             0      0.00%     85.53% # Type of FU issued
system.cpu.iq.FU_type_0::SimdSha256Hash2            0      0.00%     85.53% # Type of FU issued
system.cpu.iq.FU_type_0::SimdShaSigma2              0      0.00%     85.53% # Type of FU issued
system.cpu.iq.FU_type_0::SimdShaSigma3              0      0.00%     85.53% # Type of FU issued
system.cpu.iq.FU_type_0::SimdPredAlu                0      0.00%     85.53% # Type of FU issued
system.cpu.iq.FU_type_0::MemRead              1726165     10.88%     96.41% # Type of FU issued
system.cpu.iq.FU_type_0::MemWrite              509101      3.21%     99.62% # Type of FU issued
system.cpu.iq.FU_type_0::FloatMemRead           43767      0.28%     99.89% # Type of FU issued
system.cpu.iq.FU_type_0::FloatMemWrite          17336      0.11%    100.00% # Type of FU issued
system.cpu.iq.FU_type_0::IprAccess                  0      0.00%    100.00% # Type of FU issued
system.cpu.iq.FU_type_0::InstPrefetch               0      0.00%    100.00% # Type of FU issued
system.cpu.iq.FU_type_0::total               15872754                       # Type of FU issued
system.cpu.iq.fp_alu_accesses                  257386                       # Number of floating point alu accesses
system.cpu.iq.fp_inst_queue_reads              516208                       # Number of floating instruction queue reads
system.cpu.iq.fp_inst_queue_wakeup_accesses       253644                       # Number of floating instruction queue wakeup accesses
system.cpu.iq.fp_inst_queue_writes             300568                       # Number of floating instruction queue writes
system.cpu.iq.fu_busy_cnt                           0                       # FU busy when requested
system.cpu.iq.fu_busy_rate                          0                       # FU busy rate (busy events/executed inst)
system.cpu.iq.fu_full::No_OpClass                   0                       # attempts to use FU when none available
system.cpu.iq.fu_full::IntAlu                       0                       # attempts to use FU when none available
system.cpu.iq.fu_full::IntMult                      0                       # attempts to use FU when none available
system.cpu.iq.fu_full::IntDiv                       0                       # attempts to use FU when none available
system.cpu.iq.fu_full::FloatAdd                     0                       # attempts to use FU when none available
system.cpu.iq.fu_full::FloatCmp                     0                       # attempts to use FU when none available
system.cpu.iq.fu_full::FloatCvt                     0                       # attempts to use FU when none available
system.cpu.iq.fu_full::FloatMult                    0                       # attempts to use FU when none available
system.cpu.iq.fu_full::FloatMultAcc                 0                       # attempts to use FU when none available
system.cpu.iq.fu_full::FloatDiv                     0                       # attempts to use FU when none available
system.cpu.iq.fu_full::FloatMisc                    0                       # attempts to use FU when none available
system.cpu.iq.fu_full::FloatSqrt                    0                       # attempts to use FU when none available
system.cpu.iq.fu_full::SimdAdd                      0                       # attempts to use FU when none available
system.cpu.iq.fu_full::SimdAddAcc                   0                       # attempts to use FU when none available
system.cpu.iq.fu_full::SimdAlu                      0                       # attempts to use FU when none available
system.cpu.iq.fu_full::SimdCmp                      0                       # attempts to use FU when none available
system.cpu.iq.fu_full::SimdCvt                      0                       # attempts to use FU when none available
system.cpu.iq.fu_full::SimdMisc                     0                       # attempts to use FU when none available
system.cpu.iq.fu_full::SimdMult                     0                       # attempts to use FU when none available
system.cpu.iq.fu_full::SimdMultAcc                  0                       # attempts to use FU when none available
system.cpu.iq.fu_full::SimdShift                    0                       # attempts to use FU when none available
system.cpu.iq.fu_full::SimdShiftAcc                 0                       # attempts to use FU when none available
system.cpu.iq.fu_full::SimdDiv                      0                       # attempts to use FU when none available
system.cpu.iq.fu_full::SimdSqrt                     0                       # attempts to use FU when none available
system.cpu.iq.fu_full::SimdFloatAdd                 0                       # attempts to use FU when none available
system.cpu.iq.fu_full::SimdFloatAlu                 0                       # attempts to use FU when none available
system.cpu.iq.fu_full::SimdFloatCmp                 0                       # attempts to use FU when none available
system.cpu.iq.fu_full::SimdFloatCvt                 0                       # attempts to use FU when none available
system.cpu.iq.fu_full::SimdFloatDiv                 0                       # attempts to use FU when none available
system.cpu.iq.fu_full::SimdFloatMisc                0                       # attempts to use FU when none available
system.cpu.iq.fu_full::SimdFloatMult                0                       # attempts to use FU when none available
system.cpu.iq.fu_full::SimdFloatMultAcc             0                       # attempts to use FU when none available
system.cpu.iq.fu_full::SimdFloatSqrt                0                       # attempts to use FU when none available
system.cpu.iq.fu_full::SimdReduceAdd                0                       # attempts to use FU when none available
system.cpu.iq.fu_full::SimdReduceAlu                0                       # attempts to use FU when none available
system.cpu.iq.fu_full::SimdReduceCmp                0                       # attempts to use FU when none available
system.cpu.iq.fu_full::SimdFloatReduceAdd            0                       # attempts to use FU when none available
system.cpu.iq.fu_full::SimdFloatReduceCmp            0                       # attempts to use FU when none available
system.cpu.iq.fu_full::SimdAes                      0                       # attempts to use FU when none available
system.cpu.iq.fu_full::SimdAesMix                   0                       # attempts to use FU when none available
system.cpu.iq.fu_full::SimdSha1Hash                 0                       # attempts to use FU when none available
system.cpu.iq.fu_full::SimdSha1Hash2                0                       # attempts to use FU when none available
system.cpu.iq.fu_full::SimdSha256Hash               0                       # attempts to use FU when none available
system.cpu.iq.fu_full::SimdSha256Hash2              0                       # attempts to use FU when none available
system.cpu.iq.fu_full::SimdShaSigma2                0                       # attempts to use FU when none available
system.cpu.iq.fu_full::SimdShaSigma3                0                       # attempts to use FU when none available
system.cpu.iq.fu_full::SimdPredAlu                  0                       # attempts to use FU when none available
system.cpu.iq.fu_full::MemRead                      0                       # attempts to use FU when none available
system.cpu.iq.fu_full::MemWrite                     0                       # attempts to use FU when none available
system.cpu.iq.fu_full::FloatMemRead                 0                       # attempts to use FU when none available
system.cpu.iq.fu_full::FloatMemWrite                0                       # attempts to use FU when none available
system.cpu.iq.fu_full::IprAccess                    0                       # attempts to use FU when none available
system.cpu.iq.fu_full::InstPrefetch                 0                       # attempts to use FU when none available
system.cpu.iq.int_alu_accesses               15566011                       # Number of integer alu accesses
system.cpu.iq.int_inst_queue_reads           37601586                       # Number of integer instruction queue reads
system.cpu.iq.int_inst_queue_wakeup_accesses     15521117                       # Number of integer instruction queue wakeup accesses
system.cpu.iq.int_inst_queue_writes          17098845                       # Number of integer instruction queue writes
system.cpu.iq.iqInstsAdded                   16262338                       # Number of instructions added to the IQ (excludes non-spec)
system.cpu.iq.iqInstsIssued                  15872754                       # Number of instructions issued
system.cpu.iq.iqNonSpecInstsAdded                3962                       # Number of non-speculative instructions added to the IQ
system.cpu.iq.iqSquashedInstsExamined         1133015                       # Number of squashed instructions iterated over during squash; mainly for profiling
system.cpu.iq.iqSquashedInstsIssued             24077                       # Number of squashed instructions issued
system.cpu.iq.iqSquashedNonSpecRemoved           3181                       # Number of squashed non-spec instructions that were removed
system.cpu.iq.iqSquashedOperandsExamined      1656347                       # Number of squashed operands that are examined and possibly removed from graph
system.cpu.iq.issued_per_cycle::samples       6348212                       # Number of insts issued each cycle
system.cpu.iq.issued_per_cycle::mean         2.500350                       # Number of insts issued each cycle
system.cpu.iq.issued_per_cycle::stdev        1.585884                       # Number of insts issued each cycle
system.cpu.iq.issued_per_cycle::underflows            0      0.00%      0.00% # Number of insts issued each cycle
system.cpu.iq.issued_per_cycle::0             1426984     22.48%     22.48% # Number of insts issued each cycle
system.cpu.iq.issued_per_cycle::1              396000      6.24%     28.72% # Number of insts issued each cycle
system.cpu.iq.issued_per_cycle::2              611421      9.63%     38.35% # Number of insts issued each cycle
system.cpu.iq.issued_per_cycle::3             1401316     22.07%     60.42% # Number of insts issued each cycle
system.cpu.iq.issued_per_cycle::4             2512491     39.58%    100.00% # Number of insts issued each cycle
system.cpu.iq.issued_per_cycle::overflows            0      0.00%    100.00% # Number of insts issued each cycle
system.cpu.iq.issued_per_cycle::min_value            0                       # Number of insts issued each cycle
system.cpu.iq.issued_per_cycle::max_value            4                       # Number of insts issued each cycle
system.cpu.iq.issued_per_cycle::total         6348212                       # Number of insts issued each cycle
system.cpu.iq.rate                           2.436155                       # Inst issue rate
system.cpu.iq.vec_alu_accesses                      0                       # Number of vector alu accesses
system.cpu.iq.vec_inst_queue_reads                  0                       # Number of vector instruction queue reads
system.cpu.iq.vec_inst_queue_wakeup_accesses            0                       # Number of vector instruction queue wakeup accesses
system.cpu.iq.vec_inst_queue_writes                 0                       # Number of vector instruction queue writes
system.cpu.itb.rdAccesses                           0                       # TLB accesses on read requests
system.cpu.itb.rdMisses                             0                       # TLB misses on read requests
system.cpu.itb.wrAccesses                      600066                       # TLB accesses on write requests
system.cpu.itb.wrMisses                           384                       # TLB misses on write requests
system.cpu.memDep0.conflictingLoads             23837                       # Number of conflicting loads.
system.cpu.memDep0.conflictingStores             8144                       # Number of conflicting stores.
system.cpu.memDep0.insertedLoads              1798390                       # Number of loads inserted to the mem dependence unit.
system.cpu.memDep0.insertedStores              541257                       # Number of stores inserted to the mem dependence unit.
system.cpu.misc_regfile_reads                 6683312                       # number of misc regfile reads
system.cpu.misc_regfile_writes                    720                       # number of misc regfile writes
system.cpu.numCycles                          6515493                       # number of cpu cycles simulated
system.cpu.numWorkItemsCompleted                    0                       # number of work items this cpu completed
system.cpu.numWorkItemsStarted                      0                       # number of work items this cpu started
system.cpu.process.numSyscalls                     60                       # Number of system calls
system.cpu.rename.BlockCycles                  899568                       # Number of cycles rename is blocking
system.cpu.rename.CommittedMaps              19709704                       # Number of HB maps that are committed
system.cpu.rename.FullRegisterEvents              146                       # Number of times there has been no free registers
system.cpu.rename.IQFullEvents                  50835                       # Number of times rename has blocked due to IQ full
system.cpu.rename.IdleCycles                   753791                       # Number of cycles rename is idle
system.cpu.rename.LQFullEvents                  12664                       # Number of times rename has blocked due to LQ full
system.cpu.rename.ROBFullEvents                  4328                       # Number of times rename has blocked due to ROB full
system.cpu.rename.RenameLookups              41730004                       # Number of register rename lookups that rename has made
system.cpu.rename.RenamedInsts               16506792                       # Number of instructions processed by rename
system.cpu.rename.RenamedOperands            21455511                       # Number of destination operands rename has renamed
system.cpu.rename.RunCycles                   4441156                       # Number of cycles rename is running
system.cpu.rename.SQFullEvents                  89197                       # Number of times rename has blocked due to SQ full
system.cpu.rename.SquashCycles                  41105                       # Number of cycles rename is squashing
system.cpu.rename.UnblockCycles                191658                       # Number of cycles rename is unblocking
system.cpu.rename.UndoneMaps                  1745784                       # Number of HB maps that are undone due to squashing
system.cpu.rename.fp_rename_lookups            444128                       # Number of floating rename lookups
system.cpu.rename.int_rename_lookups         22110238                       # Number of integer rename lookups
system.cpu.rename.serializeStallCycles          20934                       # count of cycles rename stalled for serializing inst
system.cpu.rename.serializingInsts                926                       # count of serializing insts renamed
system.cpu.rename.skidInsts                    223494                       # count of insts added to the skid buffer
system.cpu.rename.tempSerializingInsts            977                       # count of temporary serializing insts renamed
system.cpu.rob.rob_reads                     19661271                       # The number of ROB reads
system.cpu.rob.rob_writes                    32846477                       # The number of ROB writes
system.cpu.timesIdled                            1760                       # Number of times that the entire CPU went into an idle state and unscheduled itself
system.l2bus.snoop_filter.hit_multi_requests           12                       # Number of requests hitting in the snoop filter with multiple (>1) holders of the requested data.
system.l2bus.snoop_filter.hit_multi_snoops            0                       # Number of snoops hitting in the snoop filter with multiple (>1) holders of the requested data.
system.l2bus.snoop_filter.hit_single_requests        19261                       # Number of requests hitting in the snoop filter with a single holder of the requested data.
system.l2bus.snoop_filter.hit_single_snoops          459                       # Number of snoops hitting in the snoop filter with a single holder of the requested data.
system.l2bus.snoop_filter.tot_requests          39800                       # Total number of requests made to the snoop filter.
system.l2bus.snoop_filter.tot_snoops              459                       # Total number of snoops made to the snoop filter.
system.l2cache.prefetcher.num_hwpf_issued          822                       # number of hwpf issued
system.l2cache.prefetcher.pfBufferHit               0                       # number of redundant prefetches already in prefetch queue
system.l2cache.prefetcher.pfIdentified            822                       # number of prefetch candidates identified
system.l2cache.prefetcher.pfInCache                 0                       # number of redundant prefetches already in cache/mshr dropped
system.l2cache.prefetcher.pfRemovedFull             0                       # number of prefetches dropped due to prefetch queue size
system.l2cache.prefetcher.pfSpanPage              102                       # number of prefetches that crossed the page
system.membus.snoop_filter.hit_multi_requests            0                       # Number of requests hitting in the snoop filter with multiple (>1) holders of the requested data.
system.membus.snoop_filter.hit_multi_snoops            0                       # Number of snoops hitting in the snoop filter with multiple (>1) holders of the requested data.
system.membus.snoop_filter.hit_single_requests         9755                       # Number of requests hitting in the snoop filter with a single holder of the requested data.
system.membus.snoop_filter.hit_single_snoops            0                       # Number of snoops hitting in the snoop filter with a single holder of the requested data.
system.membus.snoop_filter.tot_requests         23635                       # Total number of requests made to the snoop filter.
system.membus.snoop_filter.tot_snoops               0                       # Total number of snoops made to the snoop filter.
system.membus.pwrStateResidencyTicks::UNDEFINED   2606196800                       # Cumulative time (in ticks) in various power states
system.membus.trans_dist::ReadResp              12371                       # Transaction distribution
system.membus.trans_dist::WritebackDirty         1365                       # Transaction distribution
system.membus.trans_dist::CleanEvict             8390                       # Transaction distribution
system.membus.trans_dist::ReadExReq              1509                       # Transaction distribution
system.membus.trans_dist::ReadExResp             1509                       # Transaction distribution
system.membus.trans_dist::ReadSharedReq         12371                       # Transaction distribution
system.membus.pkt_count_system.l2cache.mem_side::system.mem_ctrl.port        37515                       # Packet count per connected master and slave (bytes)
system.membus.pkt_count_system.l2cache.mem_side::total        37515                       # Packet count per connected master and slave (bytes)
system.membus.pkt_count::total                  37515                       # Packet count per connected master and slave (bytes)
system.membus.pkt_size_system.l2cache.mem_side::system.mem_ctrl.port       975680                       # Cumulative packet size per connected master and slave (bytes)
system.membus.pkt_size_system.l2cache.mem_side::total       975680                       # Cumulative packet size per connected master and slave (bytes)
system.membus.pkt_size::total                  975680                       # Cumulative packet size per connected master and slave (bytes)
system.membus.snoops                                0                       # Total snoops (count)
system.membus.snoopTraffic                          0                       # Total snoop traffic (bytes)
system.membus.snoop_fanout::samples             13880                       # Request fanout histogram
system.membus.snoop_fanout::mean                    0                       # Request fanout histogram
system.membus.snoop_fanout::stdev                   0                       # Request fanout histogram
system.membus.snoop_fanout::underflows              0      0.00%      0.00% # Request fanout histogram
system.membus.snoop_fanout::0                   13880    100.00%    100.00% # Request fanout histogram
system.membus.snoop_fanout::1                       0      0.00%    100.00% # Request fanout histogram
system.membus.snoop_fanout::overflows               0      0.00%    100.00% # Request fanout histogram
system.membus.snoop_fanout::min_value               0                       # Request fanout histogram
system.membus.snoop_fanout::max_value               0                       # Request fanout histogram
system.membus.snoop_fanout::total               13880                       # Request fanout histogram
system.membus.reqLayer2.occupancy            11673662                       # Layer occupancy (ticks)
system.membus.reqLayer2.utilization               0.4                       # Layer utilization (%)
system.membus.respLayer0.occupancy           30091138                       # Layer occupancy (ticks)
system.membus.respLayer0.utilization              1.2                       # Layer utilization (%)
system.l2bus.pwrStateResidencyTicks::UNDEFINED   2606196800                       # Cumulative time (in ticks) in various power states
system.l2bus.trans_dist::ReadResp               18268                       # Transaction distribution
system.l2bus.trans_dist::WritebackDirty          4280                       # Transaction distribution
system.l2bus.trans_dist::CleanEvict             24828                       # Transaction distribution
system.l2bus.trans_dist::HardPFReq               1153                       # Transaction distribution
system.l2bus.trans_dist::ReadExReq               2272                       # Transaction distribution
system.l2bus.trans_dist::ReadExResp              2272                       # Transaction distribution
system.l2bus.trans_dist::ReadSharedReq          18268                       # Transaction distribution
system.l2bus.pkt_count_system.cpu.icache.mem_side::system.l2cache.cpu_side         9374                       # Packet count per connected master and slave (bytes)
system.l2bus.pkt_count_system.cpu.dcache.mem_side::system.l2cache.cpu_side        50963                       # Packet count per connected master and slave (bytes)
system.l2bus.pkt_count::total                   60337                       # Packet count per connected master and slave (bytes)
system.l2bus.pkt_size_system.cpu.icache.mem_side::system.l2cache.cpu_side       205312                       # Cumulative packet size per connected master and slave (bytes)
system.l2bus.pkt_size_system.cpu.dcache.mem_side::system.l2cache.cpu_side      1295616                       # Cumulative packet size per connected master and slave (bytes)
system.l2bus.pkt_size::total                  1500928                       # Cumulative packet size per connected master and slave (bytes)
system.l2bus.snoops                             11004                       # Total snoops (count)
system.l2bus.snoopTraffic                       87552                       # Total snoop traffic (bytes)
system.l2bus.snoop_fanout::samples              31541                       # Request fanout histogram
system.l2bus.snoop_fanout::mean              0.014965                       # Request fanout histogram
system.l2bus.snoop_fanout::stdev             0.121413                       # Request fanout histogram
system.l2bus.snoop_fanout::underflows               0      0.00%      0.00% # Request fanout histogram
system.l2bus.snoop_fanout::0                    31069     98.50%     98.50% # Request fanout histogram
system.l2bus.snoop_fanout::1                      472      1.50%    100.00% # Request fanout histogram
system.l2bus.snoop_fanout::2                        0      0.00%    100.00% # Request fanout histogram
system.l2bus.snoop_fanout::overflows                0      0.00%    100.00% # Request fanout histogram
system.l2bus.snoop_fanout::min_value                0                       # Request fanout histogram
system.l2bus.snoop_fanout::max_value                1                       # Request fanout histogram
system.l2bus.snoop_fanout::total                31541                       # Request fanout histogram
system.l2bus.respLayer1.occupancy            20795598                       # Layer occupancy (ticks)
system.l2bus.respLayer1.utilization               0.8                       # Layer utilization (%)
system.l2bus.reqLayer0.occupancy             19712599                       # Layer occupancy (ticks)
system.l2bus.reqLayer0.utilization                0.8                       # Layer utilization (%)
system.l2bus.respLayer0.occupancy             3854397                       # Layer occupancy (ticks)
system.l2bus.respLayer0.utilization               0.1                       # Layer utilization (%)
system.clk_domain.clock                           400                       # Clock period in ticks
system.clk_domain.voltage_domain.voltage            1                       # Voltage in Volts
system.cpu.pwrStateResidencyTicks::ON      2606196800                       # Cumulative time (in ticks) in various power states
system.cpu.icache.pwrStateResidencyTicks::UNDEFINED   2606196800                       # Cumulative time (in ticks) in various power states
system.cpu.icache.demand_hits::.cpu.inst       595996                       # number of demand (read+write) hits
system.cpu.icache.demand_hits::total           595996                       # number of demand (read+write) hits
system.cpu.icache.overall_hits::.cpu.inst       595996                       # number of overall hits
system.cpu.icache.overall_hits::total          595996                       # number of overall hits
system.cpu.icache.demand_misses::.cpu.inst         3941                       # number of demand (read+write) misses
system.cpu.icache.demand_misses::total           3941                       # number of demand (read+write) misses
system.cpu.icache.overall_misses::.cpu.inst         3941                       # number of overall misses
system.cpu.icache.overall_misses::total          3941                       # number of overall misses
system.cpu.icache.demand_miss_latency::.cpu.inst    185442000                       # number of demand (read+write) miss cycles
system.cpu.icache.demand_miss_latency::total    185442000                       # number of demand (read+write) miss cycles
system.cpu.icache.overall_miss_latency::.cpu.inst    185442000                       # number of overall miss cycles
system.cpu.icache.overall_miss_latency::total    185442000                       # number of overall miss cycles
system.cpu.icache.demand_accesses::.cpu.inst       599937                       # number of demand (read+write) accesses
system.cpu.icache.demand_accesses::total       599937                       # number of demand (read+write) accesses
system.cpu.icache.overall_accesses::.cpu.inst       599937                       # number of overall (read+write) accesses
system.cpu.icache.overall_accesses::total       599937                       # number of overall (read+write) accesses
system.cpu.icache.demand_miss_rate::.cpu.inst     0.006569                       # miss rate for demand accesses
system.cpu.icache.demand_miss_rate::total     0.006569                       # miss rate for demand accesses
system.cpu.icache.overall_miss_rate::.cpu.inst     0.006569                       # miss rate for overall accesses
system.cpu.icache.overall_miss_rate::total     0.006569                       # miss rate for overall accesses
system.cpu.icache.demand_avg_miss_latency::.cpu.inst 47054.554682                       # average overall miss latency
system.cpu.icache.demand_avg_miss_latency::total 47054.554682                       # average overall miss latency
system.cpu.icache.overall_avg_miss_latency::.cpu.inst 47054.554682                       # average overall miss latency
system.cpu.icache.overall_avg_miss_latency::total 47054.554682                       # average overall miss latency
system.cpu.icache.blocked_cycles::no_mshrs          108                       # number of cycles access was blocked
system.cpu.icache.blocked_cycles::no_targets            0                       # number of cycles access was blocked
system.cpu.icache.blocked::no_mshrs                 5                       # number of cycles access was blocked
system.cpu.icache.blocked::no_targets               0                       # number of cycles access was blocked
system.cpu.icache.avg_blocked_cycles::no_mshrs    21.600000                       # average number of cycles each access was blocked
system.cpu.icache.avg_blocked_cycles::no_targets          nan                       # average number of cycles each access was blocked
system.cpu.icache.demand_mshr_hits::.cpu.inst          730                       # number of demand (read+write) MSHR hits
system.cpu.icache.demand_mshr_hits::total          730                       # number of demand (read+write) MSHR hits
system.cpu.icache.overall_mshr_hits::.cpu.inst          730                       # number of overall MSHR hits
system.cpu.icache.overall_mshr_hits::total          730                       # number of overall MSHR hits
system.cpu.icache.demand_mshr_misses::.cpu.inst         3211                       # number of demand (read+write) MSHR misses
system.cpu.icache.demand_mshr_misses::total         3211                       # number of demand (read+write) MSHR misses
system.cpu.icache.overall_mshr_misses::.cpu.inst         3211                       # number of overall MSHR misses
system.cpu.icache.overall_mshr_misses::total         3211                       # number of overall MSHR misses
system.cpu.icache.demand_mshr_miss_latency::.cpu.inst    149631200                       # number of demand (read+write) MSHR miss cycles
system.cpu.icache.demand_mshr_miss_latency::total    149631200                       # number of demand (read+write) MSHR miss cycles
system.cpu.icache.overall_mshr_miss_latency::.cpu.inst    149631200                       # number of overall MSHR miss cycles
system.cpu.icache.overall_mshr_miss_latency::total    149631200                       # number of overall MSHR miss cycles
system.cpu.icache.demand_mshr_miss_rate::.cpu.inst     0.005352                       # mshr miss rate for demand accesses
system.cpu.icache.demand_mshr_miss_rate::total     0.005352                       # mshr miss rate for demand accesses
system.cpu.icache.overall_mshr_miss_rate::.cpu.inst     0.005352                       # mshr miss rate for overall accesses
system.cpu.icache.overall_mshr_miss_rate::total     0.005352                       # mshr miss rate for overall accesses
system.cpu.icache.demand_avg_mshr_miss_latency::.cpu.inst 46599.563999                       # average overall mshr miss latency
system.cpu.icache.demand_avg_mshr_miss_latency::total 46599.563999                       # average overall mshr miss latency
system.cpu.icache.overall_avg_mshr_miss_latency::.cpu.inst 46599.563999                       # average overall mshr miss latency
system.cpu.icache.overall_avg_mshr_miss_latency::total 46599.563999                       # average overall mshr miss latency
system.cpu.icache.replacements                   2955                       # number of replacements
system.cpu.icache.ReadReq_hits::.cpu.inst       595996                       # number of ReadReq hits
system.cpu.icache.ReadReq_hits::total          595996                       # number of ReadReq hits
system.cpu.icache.ReadReq_misses::.cpu.inst         3941                       # number of ReadReq misses
system.cpu.icache.ReadReq_misses::total          3941                       # number of ReadReq misses
system.cpu.icache.ReadReq_miss_latency::.cpu.inst    185442000                       # number of ReadReq miss cycles
system.cpu.icache.ReadReq_miss_latency::total    185442000                       # number of ReadReq miss cycles
system.cpu.icache.ReadReq_accesses::.cpu.inst       599937                       # number of ReadReq accesses(hits+misses)
system.cpu.icache.ReadReq_accesses::total       599937                       # number of ReadReq accesses(hits+misses)
system.cpu.icache.ReadReq_miss_rate::.cpu.inst     0.006569                       # miss rate for ReadReq accesses
system.cpu.icache.ReadReq_miss_rate::total     0.006569                       # miss rate for ReadReq accesses
system.cpu.icache.ReadReq_avg_miss_latency::.cpu.inst 47054.554682                       # average ReadReq miss latency
system.cpu.icache.ReadReq_avg_miss_latency::total 47054.554682                       # average ReadReq miss latency
system.cpu.icache.ReadReq_mshr_hits::.cpu.inst          730                       # number of ReadReq MSHR hits
system.cpu.icache.ReadReq_mshr_hits::total          730                       # number of ReadReq MSHR hits
system.cpu.icache.ReadReq_mshr_misses::.cpu.inst         3211                       # number of ReadReq MSHR misses
system.cpu.icache.ReadReq_mshr_misses::total         3211                       # number of ReadReq MSHR misses
system.cpu.icache.ReadReq_mshr_miss_latency::.cpu.inst    149631200                       # number of ReadReq MSHR miss cycles
system.cpu.icache.ReadReq_mshr_miss_latency::total    149631200                       # number of ReadReq MSHR miss cycles
system.cpu.icache.ReadReq_mshr_miss_rate::.cpu.inst     0.005352                       # mshr miss rate for ReadReq accesses
system.cpu.icache.ReadReq_mshr_miss_rate::total     0.005352                       # mshr miss rate for ReadReq accesses
system.cpu.icache.ReadReq_avg_mshr_miss_latency::.cpu.inst 46599.563999                       # average ReadReq mshr miss latency
system.cpu.icache.ReadReq_avg_mshr_miss_latency::total 46599.563999                       # average ReadReq mshr miss latency
system.cpu.icache.prefetcher.pwrStateResidencyTicks::UNDEFINED   2606196800                       # Cumulative time (in ticks) in various power states
system.cpu.icache.tags.pwrStateResidencyTicks::UNDEFINED   2606196800                       # Cumulative time (in ticks) in various power states
system.cpu.icache.tags.tagsinuse           254.944663                       # Cycle average of tags in use
system.cpu.icache.tags.total_refs              439304                       # Total number of references to valid blocks.
system.cpu.icache.tags.sampled_refs              2955                       # Sample count of references to valid blocks.
system.cpu.icache.tags.avg_refs            148.664636                       # Average number of references to valid blocks.
system.cpu.icache.tags.warmup_cycle             66400                       # Cycle when the warmup percentage was hit.
system.cpu.icache.tags.occ_blocks::.cpu.inst   254.944663                       # Average occupied blocks per requestor
system.cpu.icache.tags.occ_percent::.cpu.inst     0.995878                       # Average percentage of cache occupancy
system.cpu.icache.tags.occ_percent::total     0.995878                       # Average percentage of cache occupancy
system.cpu.icache.tags.occ_task_id_blocks::1024          256                       # Occupied blocks per task id
system.cpu.icache.tags.age_task_id_blocks_1024::0           97                       # Occupied blocks per task id
system.cpu.icache.tags.age_task_id_blocks_1024::1            6                       # Occupied blocks per task id
system.cpu.icache.tags.age_task_id_blocks_1024::2            8                       # Occupied blocks per task id
system.cpu.icache.tags.age_task_id_blocks_1024::3          145                       # Occupied blocks per task id
system.cpu.icache.tags.occ_task_id_percent::1024            1                       # Percentage of cache occupancy per task id
system.cpu.icache.tags.tag_accesses           1203085                       # Number of tag accesses
system.cpu.icache.tags.data_accesses          1203085                       # Number of data accesses
system.cpu.dtb.walker.pwrStateResidencyTicks::UNDEFINED   2606196800                       # Cumulative time (in ticks) in various power states
system.cpu.interrupts.clk_domain.clock           6400                       # Clock period in ticks
system.cpu.itb.walker.pwrStateResidencyTicks::UNDEFINED   2606196800                       # Cumulative time (in ticks) in various power states
system.cpu.dcache.pwrStateResidencyTicks::UNDEFINED   2606196800                       # Cumulative time (in ticks) in various power states
system.cpu.dcache.demand_hits::.cpu.data      2153751                       # number of demand (read+write) hits
system.cpu.dcache.demand_hits::total          2153751                       # number of demand (read+write) hits
system.cpu.dcache.overall_hits::.cpu.data      2153751                       # number of overall hits
system.cpu.dcache.overall_hits::total         2153751                       # number of overall hits
system.cpu.dcache.demand_misses::.cpu.data        35293                       # number of demand (read+write) misses
system.cpu.dcache.demand_misses::total          35293                       # number of demand (read+write) misses
system.cpu.dcache.overall_misses::.cpu.data        35293                       # number of overall misses
system.cpu.dcache.overall_misses::total         35293                       # number of overall misses
system.cpu.dcache.demand_miss_latency::.cpu.data   1716434000                       # number of demand (read+write) miss cycles
system.cpu.dcache.demand_miss_latency::total   1716434000                       # number of demand (read+write) miss cycles
system.cpu.dcache.overall_miss_latency::.cpu.data   1716434000                       # number of overall miss cycles
system.cpu.dcache.overall_miss_latency::total   1716434000                       # number of overall miss cycles
system.cpu.dcache.demand_accesses::.cpu.data      2189044                       # number of demand (read+write) accesses
system.cpu.dcache.demand_accesses::total      2189044                       # number of demand (read+write) accesses
system.cpu.dcache.overall_accesses::.cpu.data      2189044                       # number of overall (read+write) accesses
system.cpu.dcache.overall_accesses::total      2189044                       # number of overall (read+write) accesses
system.cpu.dcache.demand_miss_rate::.cpu.data     0.016123                       # miss rate for demand accesses
system.cpu.dcache.demand_miss_rate::total     0.016123                       # miss rate for demand accesses
system.cpu.dcache.overall_miss_rate::.cpu.data     0.016123                       # miss rate for overall accesses
system.cpu.dcache.overall_miss_rate::total     0.016123                       # miss rate for overall accesses
system.cpu.dcache.demand_avg_miss_latency::.cpu.data 48633.836738                       # average overall miss latency
system.cpu.dcache.demand_avg_miss_latency::total 48633.836738                       # average overall miss latency
system.cpu.dcache.overall_avg_miss_latency::.cpu.data 48633.836738                       # average overall miss latency
system.cpu.dcache.overall_avg_miss_latency::total 48633.836738                       # average overall miss latency
system.cpu.dcache.blocked_cycles::no_mshrs        28643                       # number of cycles access was blocked
system.cpu.dcache.blocked_cycles::no_targets          151                       # number of cycles access was blocked
system.cpu.dcache.blocked::no_mshrs               746                       # number of cycles access was blocked
system.cpu.dcache.blocked::no_targets               2                       # number of cycles access was blocked
system.cpu.dcache.avg_blocked_cycles::no_mshrs    38.395442                       # average number of cycles each access was blocked
system.cpu.dcache.avg_blocked_cycles::no_targets    75.500000                       # average number of cycles each access was blocked
system.cpu.dcache.unused_prefetches              1848                       # number of HardPF blocks evicted w/o reference
system.cpu.dcache.writebacks::.writebacks         2915                       # number of writebacks
system.cpu.dcache.writebacks::total              2915                       # number of writebacks
system.cpu.dcache.demand_mshr_hits::.cpu.data        22422                       # number of demand (read+write) MSHR hits
system.cpu.dcache.demand_mshr_hits::total        22422                       # number of demand (read+write) MSHR hits
system.cpu.dcache.overall_mshr_hits::.cpu.data        22422                       # number of overall MSHR hits
system.cpu.dcache.overall_mshr_hits::total        22422                       # number of overall MSHR hits
system.cpu.dcache.demand_mshr_misses::.cpu.data        12871                       # number of demand (read+write) MSHR misses
system.cpu.dcache.demand_mshr_misses::total        12871                       # number of demand (read+write) MSHR misses
system.cpu.dcache.overall_mshr_misses::.cpu.data        12871                       # number of overall MSHR misses
system.cpu.dcache.overall_mshr_misses::.cpu.dcache.prefetcher         4458                       # number of overall MSHR misses
system.cpu.dcache.overall_mshr_misses::total        17329                       # number of overall MSHR misses
system.cpu.dcache.demand_mshr_miss_latency::.cpu.data    590767200                       # number of demand (read+write) MSHR miss cycles
system.cpu.dcache.demand_mshr_miss_latency::total    590767200                       # number of demand (read+write) MSHR miss cycles
system.cpu.dcache.overall_mshr_miss_latency::.cpu.data    590767200                       # number of overall MSHR miss cycles
system.cpu.dcache.overall_mshr_miss_latency::.cpu.dcache.prefetcher    248539663                       # number of overall MSHR miss cycles
system.cpu.dcache.overall_mshr_miss_latency::total    839306863                       # number of overall MSHR miss cycles
system.cpu.dcache.demand_mshr_miss_rate::.cpu.data     0.005880                       # mshr miss rate for demand accesses
system.cpu.dcache.demand_mshr_miss_rate::total     0.005880                       # mshr miss rate for demand accesses
system.cpu.dcache.overall_mshr_miss_rate::.cpu.data     0.005880                       # mshr miss rate for overall accesses
system.cpu.dcache.overall_mshr_miss_rate::.cpu.dcache.prefetcher          inf                       # mshr miss rate for overall accesses
system.cpu.dcache.overall_mshr_miss_rate::total     0.007916                       # mshr miss rate for overall accesses
system.cpu.dcache.demand_avg_mshr_miss_latency::.cpu.data 45899.090980                       # average overall mshr miss latency
system.cpu.dcache.demand_avg_mshr_miss_latency::total 45899.090980                       # average overall mshr miss latency
system.cpu.dcache.overall_avg_mshr_miss_latency::.cpu.data 45899.090980                       # average overall mshr miss latency
system.cpu.dcache.overall_avg_mshr_miss_latency::.cpu.dcache.prefetcher 55751.382459                       # average overall mshr miss latency
system.cpu.dcache.overall_avg_mshr_miss_latency::total 48433.658203                       # average overall mshr miss latency
system.cpu.dcache.replacements                  16305                       # number of replacements
system.cpu.dcache.ReadReq_hits::.cpu.data      1663411                       # number of ReadReq hits
system.cpu.dcache.ReadReq_hits::total         1663411                       # number of ReadReq hits
system.cpu.dcache.ReadReq_misses::.cpu.data        32987                       # number of ReadReq misses
system.cpu.dcache.ReadReq_misses::total         32987                       # number of ReadReq misses
system.cpu.dcache.ReadReq_miss_latency::.cpu.data   1599969200                       # number of ReadReq miss cycles
system.cpu.dcache.ReadReq_miss_latency::total   1599969200                       # number of ReadReq miss cycles
system.cpu.dcache.ReadReq_accesses::.cpu.data      1696398                       # number of ReadReq accesses(hits+misses)
system.cpu.dcache.ReadReq_accesses::total      1696398                       # number of ReadReq accesses(hits+misses)
system.cpu.dcache.ReadReq_miss_rate::.cpu.data     0.019445                       # miss rate for ReadReq accesses
system.cpu.dcache.ReadReq_miss_rate::total     0.019445                       # miss rate for ReadReq accesses
system.cpu.dcache.ReadReq_avg_miss_latency::.cpu.data 48503.022403                       # average ReadReq miss latency
system.cpu.dcache.ReadReq_avg_miss_latency::total 48503.022403                       # average ReadReq miss latency
system.cpu.dcache.ReadReq_mshr_hits::.cpu.data        22387                       # number of ReadReq MSHR hits
system.cpu.dcache.ReadReq_mshr_hits::total        22387                       # number of ReadReq MSHR hits
system.cpu.dcache.ReadReq_mshr_misses::.cpu.data        10600                       # number of ReadReq MSHR misses
system.cpu.dcache.ReadReq_mshr_misses::total        10600                       # number of ReadReq MSHR misses
system.cpu.dcache.ReadReq_mshr_miss_latency::.cpu.data    477543600                       # number of ReadReq MSHR miss cycles
system.cpu.dcache.ReadReq_mshr_miss_latency::total    477543600                       # number of ReadReq MSHR miss cycles
system.cpu.dcache.ReadReq_mshr_miss_rate::.cpu.data     0.006249                       # mshr miss rate for ReadReq accesses
system.cpu.dcache.ReadReq_mshr_miss_rate::total     0.006249                       # mshr miss rate for ReadReq accesses
system.cpu.dcache.ReadReq_avg_mshr_miss_latency::.cpu.data 45051.283019                       # average ReadReq mshr miss latency
system.cpu.dcache.ReadReq_avg_mshr_miss_latency::total 45051.283019                       # average ReadReq mshr miss latency
system.cpu.dcache.WriteReq_hits::.cpu.data       490340                       # number of WriteReq hits
system.cpu.dcache.WriteReq_hits::total         490340                       # number of WriteReq hits
system.cpu.dcache.WriteReq_misses::.cpu.data         2306                       # number of WriteReq misses
system.cpu.dcache.WriteReq_misses::total         2306                       # number of WriteReq misses
system.cpu.dcache.WriteReq_miss_latency::.cpu.data    116464800                       # number of WriteReq miss cycles
system.cpu.dcache.WriteReq_miss_latency::total    116464800                       # number of WriteReq miss cycles
system.cpu.dcache.WriteReq_accesses::.cpu.data       492646                       # number of WriteReq accesses(hits+misses)
system.cpu.dcache.WriteReq_accesses::total       492646                       # number of WriteReq accesses(hits+misses)
system.cpu.dcache.WriteReq_miss_rate::.cpu.data     0.004681                       # miss rate for WriteReq accesses
system.cpu.dcache.WriteReq_miss_rate::total     0.004681                       # miss rate for WriteReq accesses
system.cpu.dcache.WriteReq_avg_miss_latency::.cpu.data 50505.117086                       # average WriteReq miss latency
system.cpu.dcache.WriteReq_avg_miss_latency::total 50505.117086                       # average WriteReq miss latency
system.cpu.dcache.WriteReq_mshr_hits::.cpu.data           35                       # number of WriteReq MSHR hits
system.cpu.dcache.WriteReq_mshr_hits::total           35                       # number of WriteReq MSHR hits
system.cpu.dcache.WriteReq_mshr_misses::.cpu.data         2271                       # number of WriteReq MSHR misses
system.cpu.dcache.WriteReq_mshr_misses::total         2271                       # number of WriteReq MSHR misses
system.cpu.dcache.WriteReq_mshr_miss_latency::.cpu.data    113223600                       # number of WriteReq MSHR miss cycles
[...]
system.l2cache.overall_mshr_miss_latency::.cpu.dcache.prefetcher      1895969                       # number of overall MSHR miss cycles
system.l2cache.overall_mshr_miss_latency::.l2cache.prefetcher       114797                       # number of overall MSHR miss cycles
system.l2cache.overall_mshr_miss_latency::total     23132766                       # number of overall MSHR miss cycles
system.l2cache.demand_mshr_miss_rate::.cpu.inst     0.460744                       # mshr miss rate for demand accesses
system.l2cache.demand_mshr_miss_rate::.cpu.data     0.460432                       # mshr miss rate for demand accesses
system.l2cache.demand_mshr_miss_rate::.cpu.dcache.prefetcher     0.775000                       # mshr miss rate for demand accesses
system.l2cache.demand_mshr_miss_rate::total     0.476309                       # mshr miss rate for demand accesses
system.l2cache.overall_mshr_miss_rate::.cpu.inst     0.460744                       # mshr miss rate for overall accesses
system.l2cache.overall_mshr_miss_rate::.cpu.data     0.460432                       # mshr miss rate for overall accesses
system.l2cache.overall_mshr_miss_rate::.cpu.dcache.prefetcher     0.775000                       # mshr miss rate for overall accesses
system.l2cache.overall_mshr_miss_rate::.l2cache.prefetcher          inf                       # mshr miss rate for overall accesses
system.l2cache.overall_mshr_miss_rate::total     0.478803                       # mshr miss rate for overall accesses
system.l2cache.demand_avg_mshr_miss_latency::.cpu.inst 59169.506726                       # average overall mshr miss latency
system.l2cache.demand_avg_mshr_miss_latency::.cpu.data 61931.250000                       # average overall mshr miss latency
system.l2cache.demand_avg_mshr_miss_latency::.cpu.dcache.prefetcher 61160.290323                       # average overall mshr miss latency
system.l2cache.demand_avg_mshr_miss_latency::total 60256.463351                       # average overall mshr miss latency
system.l2cache.overall_avg_mshr_miss_latency::.cpu.inst 59169.506726                       # average overall mshr miss latency
system.l2cache.overall_avg_mshr_miss_latency::.cpu.data 61931.250000                       # average overall mshr miss latency
system.l2cache.overall_avg_mshr_miss_latency::.cpu.dcache.prefetcher 61160.290323                       # average overall mshr miss latency
system.l2cache.overall_avg_mshr_miss_latency::.l2cache.prefetcher 57398.500000                       # average overall mshr miss latency
system.l2cache.overall_avg_mshr_miss_latency::total 60241.578125                       # average overall mshr miss latency
system.l2cache.replacements                       393                       # number of replacements
system.l2cache.WritebackDirty_hits::.writebacks          150                       # number of WritebackDirty hits
system.l2cache.WritebackDirty_hits::total          150                       # number of WritebackDirty hits
system.l2cache.WritebackDirty_accesses::.writebacks          150                       # number of WritebackDirty accesses(hits+misses)
system.l2cache.WritebackDirty_accesses::total          150                       # number of WritebackDirty accesses(hits+misses)
system.l2cache.CleanEvict_mshr_misses::.writebacks            9                       # number of CleanEvict MSHR misses
system.l2cache.CleanEvict_mshr_misses::total            9                       # number of CleanEvict MSHR misses
system.l2cache.CleanEvict_mshr_miss_rate::.writebacks          inf                       # mshr miss rate for CleanEvict accesses
system.l2cache.CleanEvict_mshr_miss_rate::total          inf                       # mshr miss rate for CleanEvict accesses
system.l2cache.HardPFReq_mshr_misses::.l2cache.prefetcher            2                       # number of HardPFReq MSHR misses
system.l2cache.HardPFReq_mshr_misses::total            2                       # number of HardPFReq MSHR misses
system.l2cache.HardPFReq_mshr_miss_latency::.l2cache.prefetcher       114797                       # number of HardPFReq MSHR miss cycles
system.l2cache.HardPFReq_mshr_miss_latency::total       114797                       # number of HardPFReq MSHR miss cycles
system.l2cache.HardPFReq_mshr_miss_rate::.l2cache.prefetcher          inf                       # mshr miss rate for HardPFReq accesses
system.l2cache.HardPFReq_mshr_miss_rate::total          inf                       # mshr miss rate for HardPFReq accesses
system.l2cache.HardPFReq_avg_mshr_miss_latency::.l2cache.prefetcher 57398.500000                       # average HardPFReq mshr miss latency
system.l2cache.HardPFReq_avg_mshr_miss_latency::total 57398.500000                       # average HardPFReq mshr miss latency
system.l2cache.ReadExReq_hits::.cpu.data           17                       # number of ReadExReq hits
system.l2cache.ReadExReq_hits::total               17                       # number of ReadExReq hits
system.l2cache.ReadExReq_misses::.cpu.data            6                       # number of ReadExReq misses
system.l2cache.ReadExReq_misses::total              6                       # number of ReadExReq misses
system.l2cache.ReadExReq_miss_latency::.cpu.data       456000                       # number of ReadExReq miss cycles
system.l2cache.ReadExReq_miss_latency::total       456000                       # number of ReadExReq miss cycles
system.l2cache.ReadExReq_accesses::.cpu.data           23                       # number of ReadExReq accesses(hits+misses)
system.l2cache.ReadExReq_accesses::total           23                       # number of ReadExReq accesses(hits+misses)
system.l2cache.ReadExReq_miss_rate::.cpu.data     0.260870                       # miss rate for ReadExReq accesses
system.l2cache.ReadExReq_miss_rate::total     0.260870                       # miss rate for ReadExReq accesses
system.l2cache.ReadExReq_avg_miss_latency::.cpu.data        76000                       # average ReadExReq miss latency
system.l2cache.ReadExReq_avg_miss_latency::total        76000                       # average ReadExReq miss latency
system.l2cache.ReadExReq_mshr_misses::.cpu.data            6                       # number of ReadExReq MSHR misses
system.l2cache.ReadExReq_mshr_misses::total            6                       # number of ReadExReq MSHR misses
system.l2cache.ReadExReq_mshr_miss_latency::.cpu.data       408000                       # number of ReadExReq MSHR miss cycles
system.l2cache.ReadExReq_mshr_miss_latency::total       408000                       # number of ReadExReq MSHR miss cycles
system.l2cache.ReadExReq_mshr_miss_rate::.cpu.data     0.260870                       # mshr miss rate for ReadExReq accesses
system.l2cache.ReadExReq_mshr_miss_rate::total     0.260870                       # mshr miss rate for ReadExReq accesses
system.l2cache.ReadExReq_avg_mshr_miss_latency::.cpu.data        68000                       # average ReadExReq mshr miss latency
system.l2cache.ReadExReq_avg_mshr_miss_latency::total        68000                       # average ReadExReq mshr miss latency
system.l2cache.ReadSharedReq_hits::.cpu.inst          261                       # number of ReadSharedReq hits
system.l2cache.ReadSharedReq_hits::.cpu.data          133                       # number of ReadSharedReq hits
system.l2cache.ReadSharedReq_hits::.cpu.dcache.prefetcher            9                       # number of ReadSharedReq hits
system.l2cache.ReadSharedReq_hits::total          403                       # number of ReadSharedReq hits
system.l2cache.ReadSharedReq_misses::.cpu.inst          223                       # number of ReadSharedReq misses
system.l2cache.ReadSharedReq_misses::.cpu.data          122                       # number of ReadSharedReq misses
system.l2cache.ReadSharedReq_misses::.cpu.dcache.prefetcher           31                       # number of ReadSharedReq misses
system.l2cache.ReadSharedReq_misses::total          376                       # number of ReadSharedReq misses
system.l2cache.ReadSharedReq_miss_latency::.cpu.inst     14970800                       # number of ReadSharedReq miss cycles
system.l2cache.ReadSharedReq_miss_latency::.cpu.data      8495200                       # number of ReadSharedReq miss cycles
system.l2cache.ReadSharedReq_miss_latency::.cpu.dcache.prefetcher      2143969                       # number of ReadSharedReq miss cycles
system.l2cache.ReadSharedReq_miss_latency::total     25609969                       # number of ReadSharedReq miss cycles
system.l2cache.ReadSharedReq_accesses::.cpu.inst          484                       # number of ReadSharedReq accesses(hits+misses)
system.l2cache.ReadSharedReq_accesses::.cpu.data          255                       # number of ReadSharedReq accesses(hits+misses)
system.l2cache.ReadSharedReq_accesses::.cpu.dcache.prefetcher           40                       # number of ReadSharedReq accesses(hits+misses)
system.l2cache.ReadSharedReq_accesses::total          779                       # number of ReadSharedReq accesses(hits+misses)
system.l2cache.ReadSharedReq_miss_rate::.cpu.inst     0.460744                       # miss rate for ReadSharedReq accesses
system.l2cache.ReadSharedReq_miss_rate::.cpu.data     0.478431                       # miss rate for ReadSharedReq accesses
system.l2cache.ReadSharedReq_miss_rate::.cpu.dcache.prefetcher     0.775000                       # miss rate for ReadSharedReq accesses
system.l2cache.ReadSharedReq_miss_rate::total     0.482670                       # miss rate for ReadSharedReq accesses
system.l2cache.ReadSharedReq_avg_miss_latency::.cpu.inst 67133.632287                       # average ReadSharedReq miss latency
system.l2cache.ReadSharedReq_avg_miss_latency::.cpu.data 69632.786885                       # average ReadSharedReq miss latency
system.l2cache.ReadSharedReq_avg_miss_latency::.cpu.dcache.prefetcher 69160.290323                       # average ReadSharedReq miss latency
system.l2cache.ReadSharedReq_avg_miss_latency::total 68111.619681                       # average ReadSharedReq miss latency
system.l2cache.ReadSharedReq_mshr_misses::.cpu.inst          223                       # number of ReadSharedReq MSHR misses
system.l2cache.ReadSharedReq_mshr_misses::.cpu.data          122                       # number of ReadSharedReq MSHR misses
system.l2cache.ReadSharedReq_mshr_misses::.cpu.dcache.prefetcher           31                       # number of ReadSharedReq MSHR misses
system.l2cache.ReadSharedReq_mshr_misses::total          376                       # number of ReadSharedReq MSHR misses
system.l2cache.ReadSharedReq_mshr_miss_latency::.cpu.inst     13194800                       # number of ReadSharedReq MSHR miss cycles
system.l2cache.ReadSharedReq_mshr_miss_latency::.cpu.data      7519200                       # number of ReadSharedReq MSHR miss cycles
system.l2cache.ReadSharedReq_mshr_miss_latency::.cpu.dcache.prefetcher      1895969                       # number of ReadSharedReq MSHR miss cycles
system.l2cache.ReadSharedReq_mshr_miss_latency::total     22609969                       # number of ReadSharedReq MSHR miss cycles
system.l2cache.ReadSharedReq_mshr_miss_rate::.cpu.inst     0.460744                       # mshr miss rate for ReadSharedReq accesses
system.l2cache.ReadSharedReq_mshr_miss_rate::.cpu.data     0.478431                       # mshr miss rate for ReadSharedReq accesses
system.l2cache.ReadSharedReq_mshr_miss_rate::.cpu.dcache.prefetcher     0.775000                       # mshr miss rate for ReadSharedReq accesses
system.l2cache.ReadSharedReq_mshr_miss_rate::total     0.482670                       # mshr miss rate for ReadSharedReq accesses
system.l2cache.ReadSharedReq_avg_mshr_miss_latency::.cpu.inst 59169.506726                       # average ReadSharedReq mshr miss latency
system.l2cache.ReadSharedReq_avg_mshr_miss_latency::.cpu.data 61632.786885                       # average ReadSharedReq mshr miss latency
system.l2cache.ReadSharedReq_avg_mshr_miss_latency::.cpu.dcache.prefetcher 61160.290323                       # average ReadSharedReq mshr miss latency
system.l2cache.ReadSharedReq_avg_mshr_miss_latency::total 60132.896277                       # average ReadSharedReq mshr miss latency
system.l2cache.prefetcher.pwrStateResidencyTicks::UNDEFINED     60544000                       # Cumulative time (in ticks) in various power states
system.l2cache.tags.pwrStateResidencyTicks::UNDEFINED     60544000                       # Cumulative time (in ticks) in various power states
system.l2cache.tags.tagsinuse                    4096                       # Cycle average of tags in use
system.l2cache.tags.total_refs                  14256                       # Total number of references to valid blocks.
system.l2cache.tags.sampled_refs                 4489                       # Sample count of references to valid blocks.
system.l2cache.tags.avg_refs                 3.175763                       # Average number of references to valid blocks.
system.l2cache.tags.warmup_cycle                    0                       # Cycle when the warmup percentage was hit.
system.l2cache.tags.occ_blocks::.writebacks    43.689469                       # Average occupied blocks per requestor
system.l2cache.tags.occ_blocks::.cpu.inst  1140.429620                       # Average occupied blocks per requestor
system.l2cache.tags.occ_blocks::.cpu.data  1898.159236                       # Average occupied blocks per requestor
system.l2cache.tags.occ_blocks::.cpu.dcache.prefetcher   803.460339                       # Average occupied blocks per requestor
system.l2cache.tags.occ_blocks::.l2cache.prefetcher   210.261337                       # Average occupied blocks per requestor
system.l2cache.tags.occ_percent::.writebacks     0.010666                       # Average percentage of cache occupancy
system.l2cache.tags.occ_percent::.cpu.inst     0.278425                       # Average percentage of cache occupancy
system.l2cache.tags.occ_percent::.cpu.data     0.463418                       # Average percentage of cache occupancy
system.l2cache.tags.occ_percent::.cpu.dcache.prefetcher     0.196157                       # Average percentage of cache occupancy
system.l2cache.tags.occ_percent::.l2cache.prefetcher     0.051333                       # Average percentage of cache occupancy
system.l2cache.tags.occ_percent::total              1                       # Average percentage of cache occupancy
system.l2cache.tags.occ_task_id_blocks::1022          958                       # Occupied blocks per task id
system.l2cache.tags.occ_task_id_blocks::1024         3138                       # Occupied blocks per task id
system.l2cache.tags.age_task_id_blocks_1022::0            8                       # Occupied blocks per task id
system.l2cache.tags.age_task_id_blocks_1022::1           26                       # Occupied blocks per task id
system.l2cache.tags.age_task_id_blocks_1022::3          924                       # Occupied blocks per task id
system.l2cache.tags.age_task_id_blocks_1024::0          167                       # Occupied blocks per task id
system.l2cache.tags.age_task_id_blocks_1024::1          192                       # Occupied blocks per task id
system.l2cache.tags.age_task_id_blocks_1024::3         2779                       # Occupied blocks per task id
system.l2cache.tags.occ_task_id_percent::1022     0.233887                       # Percentage of cache occupancy per task id
system.l2cache.tags.occ_task_id_percent::1024     0.766113                       # Percentage of cache occupancy per task id
system.l2cache.tags.tag_accesses                13217                       # Number of tag accesses
system.l2cache.tags.data_accesses               13217                       # Number of data accesses
system.mem_ctrl.pwrStateResidencyTicks::UNDEFINED     60544000                       # Cumulative time (in ticks) in various power states
system.mem_ctrl.bytes_read::.cpu.inst           14208                       # Number of bytes read from this memory
system.mem_ctrl.bytes_read::.cpu.data            8192                       # Number of bytes read from this memory
system.mem_ctrl.bytes_read::.cpu.dcache.prefetcher         1984                       # Number of bytes read from this memory
system.mem_ctrl.bytes_read::.l2cache.prefetcher          128                       # Number of bytes read from this memory
system.mem_ctrl.bytes_read::total               24512                       # Number of bytes read from this memory
system.mem_ctrl.bytes_inst_read::.cpu.inst        14208                       # Number of instructions bytes read from this memory
system.mem_ctrl.bytes_inst_read::total          14208                       # Number of instructions bytes read from this memory
system.mem_ctrl.bytes_written::.writebacks         1280                       # Number of bytes written to this memory
system.mem_ctrl.bytes_written::total             1280                       # Number of bytes written to this memory
system.mem_ctrl.num_reads::.cpu.inst              222                       # Number of read requests responded to by this memory
system.mem_ctrl.num_reads::.cpu.data              128                       # Number of read requests responded to by this memory
system.mem_ctrl.num_reads::.cpu.dcache.prefetcher           31                       # Number of read requests responded to by this memory
system.mem_ctrl.num_reads::.l2cache.prefetcher            2                       # Number of read requests responded to by this memory
system.mem_ctrl.num_reads::total                  383                       # Number of read requests responded to by this memory
system.mem_ctrl.num_writes::.writebacks            20                       # Number of write requests responded to by this memory
system.mem_ctrl.num_writes::total                  20                       # Number of write requests responded to by this memory
system.mem_ctrl.bw_read::.cpu.inst          234672304                       # Total read bandwidth from this memory (bytes/s)
system.mem_ctrl.bw_read::.cpu.data          135306554                       # Total read bandwidth from this memory (bytes/s)
system.mem_ctrl.bw_read::.cpu.dcache.prefetcher     32769556                       # Total read bandwidth from this memory (bytes/s)
system.mem_ctrl.bw_read::.l2cache.prefetcher      2114165                       # Total read bandwidth from this memory (bytes/s)
system.mem_ctrl.bw_read::total              404862579                       # Total read bandwidth from this memory (bytes/s)
system.mem_ctrl.bw_inst_read::.cpu.inst     234672304                       # Instruction read bandwidth from this memory (bytes/s)
system.mem_ctrl.bw_inst_read::total         234672304                       # Instruction read bandwidth from this memory (bytes/s)
system.mem_ctrl.bw_write::.writebacks        21141649                       # Write bandwidth from this memory (bytes/s)
system.mem_ctrl.bw_write::total              21141649                       # Write bandwidth from this memory (bytes/s)
system.mem_ctrl.bw_total::.writebacks        21141649                       # Total bandwidth to/from this memory (bytes/s)
system.mem_ctrl.bw_total::.cpu.inst         234672304                       # Total bandwidth to/from this memory (bytes/s)
system.mem_ctrl.bw_total::.cpu.data         135306554                       # Total bandwidth to/from this memory (bytes/s)
system.mem_ctrl.bw_total::.cpu.dcache.prefetcher     32769556                       # Total bandwidth to/from this memory (bytes/s)
system.mem_ctrl.bw_total::.l2cache.prefetcher      2114165                       # Total bandwidth to/from this memory (bytes/s)
system.mem_ctrl.bw_total::total             426004228                       # Total bandwidth to/from this memory (bytes/s)

---------- End Simulation Statistics   ----------
