
---------- Begin Simulation Statistics ----------
final_tick                                 1134294800                       # Number of ticks from beginning of simulation (restored from checkpoints and never reset)
host_inst_rate                                 183844                       # Simulator instruction rate (inst/s)
host_mem_usage                                4406828                       # Number of bytes of host memory used
host_op_rate                                   321634                       # Simulator op (including micro ops) rate (op/s)
host_seconds                                    11.93                       # Real time elapsed on the host
host_tick_rate                               95104859                       # Simulator tick rate (ticks/s)
sim_freq                                 1000000000000                       # Frequency of simulated ticks
sim_insts                                     2192651                       # Number of instructions simulated
sim_ops                                       3836049                       # Number of ops (including micro ops) simulated
sim_seconds                                  0.001134                       # Number of seconds simulated
sim_ticks                                  1134294800                       # Number of ticks simulated
system.cpu.branchPred.BTBCorrect                    0                       # Number of correct BTB predictions (this stat may not work properly.
system.cpu.branchPred.BTBHitPct              0.000000                       # BTB Hit Percentage
system.cpu.branchPred.BTBHits                       0                       # Number of BTB hits
system.cpu.branchPred.BTBLookups               458211                       # Number of BTB lookups
system.cpu.branchPred.RASInCorrect                  8                       # Number of incorrect RAS predictions.
system.cpu.branchPred.condIncorrect             24998                       # Number of conditional branches incorrect
system.cpu.branchPred.condPredicted            488345                       # Number of conditional branches predicted
system.cpu.branchPred.indirectHits             251440                       # Number of indirect target hits.
system.cpu.branchPred.indirectLookups          458211                       # Number of indirect predictor lookups.
system.cpu.branchPred.indirectMisses           206771                       # Number of indirect misses.
system.cpu.branchPred.lookups                  518704                       # Number of BP lookups
system.cpu.branchPred.usedRAS                   13315                       # Number of times the RAS was used to get a target.
system.cpu.branchPredindirectMispredicted        12568                       # Number of mispredicted indirect branches.
system.cpu.cc_regfile_reads                   2513172                       # number of cc regfile reads
system.cpu.cc_regfile_writes                  2019669                       # number of cc regfile writes
system.cpu.commit.amos                              0                       # Number of atomic instructions committed
system.cpu.commit.branchMispredicts             25095                       # The number of times a branch was mispredicted
system.cpu.commit.branches                     371357                       # Number of branches committed
system.cpu.commit.bw_lim_events                634839                       # number cycles where commit BW limit reached
system.cpu.commit.commitNonSpecStalls             742                       # The number of times commit has been forced to stall to communicate backwards
system.cpu.commit.commitSquashedInsts          899259                       # The number of squashed insts skipped by commit
system.cpu.commit.committedInsts              2192651                       # Number of instructions committed
system.cpu.commit.committedOps                3836049                       # Number of ops (including micro ops) committed
system.cpu.commit.committed_per_cycle::samples      2426841                       # Number of insts commited each cycle
system.cpu.commit.committed_per_cycle::mean     1.580676                       # Number of insts commited each cycle
system.cpu.commit.committed_per_cycle::stdev     1.724513                       # Number of insts commited each cycle
system.cpu.commit.committed_per_cycle::underflows            0      0.00%      0.00% # Number of insts commited each cycle
system.cpu.commit.committed_per_cycle::0      1165334     48.02%     48.02% # Number of insts commited each cycle
system.cpu.commit.committed_per_cycle::1       199977      8.24%     56.26% # Number of insts commited each cycle
system.cpu.commit.committed_per_cycle::2       183357      7.56%     63.81% # Number of insts commited each cycle
system.cpu.commit.committed_per_cycle::3       243334     10.03%     73.84% # Number of insts commited each cycle
system.cpu.commit.committed_per_cycle::4       634839     26.16%    100.00% # Number of insts commited each cycle
system.cpu.commit.committed_per_cycle::overflows            0      0.00%    100.00% # Number of insts commited each cycle
system.cpu.commit.committed_per_cycle::min_value            0                       # Number of insts commited each cycle
system.cpu.commit.committed_per_cycle::max_value            4                       # Number of insts commited each cycle
system.cpu.commit.committed_per_cycle::total      2426841                       # Number of insts commited each cycle
system.cpu.commit.fp_insts                      83135                       # Number of committed floating point instructions.
system.cpu.commit.function_calls                11410                       # Number of function calls committed.
system.cpu.commit.int_insts                   3773064                       # Number of committed integer instructions.
system.cpu.commit.loads                        520803                       # Number of loads committed
system.cpu.commit.membars                           1                       # Number of memory barriers committed
system.cpu.commit.op_class_0::No_OpClass        21472      0.56%      0.56% # Class of committed instruction
system.cpu.commit.op_class_0::IntAlu          3013771     78.56%     79.12% # Class of committed instruction
system.cpu.commit.op_class_0::IntMult            2765      0.07%     79.20% # Class of committed instruction
system.cpu.commit.op_class_0::IntDiv            37707      0.98%     80.18% # Class of committed instruction
system.cpu.commit.op_class_0::FloatAdd           3273      0.09%     80.26% # Class of committed instruction
system.cpu.commit.op_class_0::FloatCmp              0      0.00%     80.26% # Class of committed instruction
system.cpu.commit.op_class_0::FloatCvt           1216      0.03%     80.30% # Class of committed instruction
system.cpu.commit.op_class_0::FloatMult             0      0.00%     80.30% # Class of committed instruction
system.cpu.commit.op_class_0::FloatMultAcc            0      0.00%     80.30% # Class of committed instruction
system.cpu.commit.op_class_0::FloatDiv              0      0.00%     80.30% # Class of committed instruction
system.cpu.commit.op_class_0::FloatMisc             0      0.00%     80.30% # Class of committed instruction
system.cpu.commit.op_class_0::FloatSqrt             0      0.00%     80.30% # Class of committed instruction
system.cpu.commit.op_class_0::SimdAdd            6262      0.16%     80.46% # Class of committed instruction
system.cpu.commit.op_class_0::SimdAddAcc            0      0.00%     80.46% # Class of committed instruction
system.cpu.commit.op_class_0::SimdAlu           12789      0.33%     80.79% # Class of committed instruction
system.cpu.commit.op_class_0::SimdCmp               0      0.00%     80.79% # Class of committed instruction
system.cpu.commit.op_class_0::SimdCvt           13752      0.36%     81.15% # Class of committed instruction
system.cpu.commit.op_class_0::SimdMisc          10028      0.26%     81.41% # Class of committed instruction
system.cpu.commit.op_class_0::SimdMult              0      0.00%     81.41% # Class of committed instruction
system.cpu.commit.op_class_0::SimdMultAcc            0      0.00%     81.41% # Class of committed instruction
system.cpu.commit.op_class_0::SimdShift          1162      0.03%     81.44% # Class of committed instruction
system.cpu.commit.op_class_0::SimdShiftAcc            0      0.00%     81.44% # Class of committed instruction
system.cpu.commit.op_class_0::SimdDiv               0      0.00%     81.44% # Class of committed instruction
system.cpu.commit.op_class_0::SimdSqrt              0      0.00%     81.44% # Class of committed instruction
system.cpu.commit.op_class_0::SimdFloatAdd            0      0.00%     81.44% # Class of committed instruction
system.cpu.commit.op_class_0::SimdFloatAlu            0      0.00%     81.44% # Class of committed instruction
system.cpu.commit.op_class_0::SimdFloatCmp            0      0.00%     81.44% # Class of committed instruction
system.cpu.commit.op_class_0::SimdFloatCvt            0      0.00%     81.44% # Class of committed instruction
system.cpu.commit.op_class_0::SimdFloatDiv            0      0.00%     81.44% # Class of committed instruction
system.cpu.commit.op_class_0::SimdFloatMisc            0      0.00%     81.44% # Class of committed instruction
system.cpu.commit.op_class_0::SimdFloatMult            0      0.00%     81.44% # Class of committed instruction
system.cpu.commit.op_class_0::SimdFloatMultAcc            0      0.00%     81.44% # Class of committed instruction
system.cpu.commit.op_class_0::SimdFloatSqrt            0      0.00%     81.44% # Class of committed instruction
system.cpu.commit.op_class_0::SimdReduceAdd            0      0.00%     81.44% # Class of committed instruction
system.cpu.commit.op_class_0::SimdReduceAlu            0      0.00%     81.44% # Class of committed instruction
system.cpu.commit.op_class_0::SimdReduceCmp            0      0.00%     81.44% # Class of committed instruction
system.cpu.commit.op_class_0::SimdFloatReduceAdd            0      0.00%     81.44% # Class of committed instruction
system.cpu.commit.op_class_0::SimdFloatReduceCmp            0      0.00%     81.44% # Class of committed instruction
system.cpu.commit.op_class_0::SimdAes               0      0.00%     81.44% # Class of committed instruction
system.cpu.commit.op_class_0::SimdAesMix            0      0.00%     81.44% # Class of committed instruction
system.cpu.commit.op_class_0::SimdSha1Hash            0      0.00%     81.44% # Class of committed instruction
system.cpu.commit.op_class_0::SimdSha1Hash2            0      0.00%     81.44% # Class of committed instruction
system.cpu.commit.op_class_0::SimdSha256Hash            0      0.00%     81.44% # Class of committed instruction
system.cpu.commit.op_class_0::SimdSha256Hash2            0      0.00%     81.44% # Class of committed instruction
system.cpu.commit.op_class_0::SimdShaSigma2            0      0.00%     81.44% # Class of committed instruction
system.cpu.commit.op_class_0::SimdShaSigma3            0      0.00%     81.44% # Class of committed instruction
system.cpu.commit.op_class_0::SimdPredAlu            0      0.00%     81.44% # Class of committed instruction
system.cpu.commit.op_class_0::MemRead          500509     13.05%     94.49% # Class of committed instruction
system.cpu.commit.op_class_0::MemWrite         178682      4.66%     99.15% # Class of committed instruction
system.cpu.commit.op_class_0::FloatMemRead        20294      0.53%     99.68% # Class of committed instruction
system.cpu.commit.op_class_0::FloatMemWrite        12367      0.32%    100.00% # Class of committed instruction
system.cpu.commit.op_class_0::IprAccess             0      0.00%    100.00% # Class of committed instruction
system.cpu.commit.op_class_0::InstPrefetch            0      0.00%    100.00% # Class of committed instruction
system.cpu.commit.op_class_0::total           3836049                       # Class of committed instruction
system.cpu.commit.refs                         711852                       # Number of memory references committed
system.cpu.commit.swp_count                         0                       # Number of s/w prefetches committed
system.cpu.commit.vec_insts                         0                       # Number of committed Vector instructions.
system.cpu.committedInsts                     2192651                       # Number of Instructions Simulated
system.cpu.committedOps                       3836049                       # Number of Ops (including micro ops) Simulated
system.cpu.cpi                               1.293292                       # CPI: Cycles Per Instruction
system.cpu.cpi_total                         1.293292                       # CPI: Total CPI of All Threads
system.cpu.dcache.prefetcher.num_hwpf_issued         8147                       # number of hwpf issued
system.cpu.dcache.prefetcher.pfBufferHit        32463                       # number of redundant prefetches already in prefetch queue
system.cpu.dcache.prefetcher.pfIdentified        47471                       # number of prefetch candidates identified
system.cpu.dcache.prefetcher.pfInCache              0                       # number of redundant prefetches already in cache/mshr dropped
system.cpu.dcache.prefetcher.pfRemovedFull            0                       # number of prefetches dropped due to prefetch queue size
system.cpu.dcache.prefetcher.pfSpanPage          4409                       # number of prefetches that crossed the page
system.cpu.decode.BlockedCycles               1023759                       # Number of cycles decode is blocked
system.cpu.decode.DecodedInsts                4958632                       # Number of instructions handled by decode
system.cpu.decode.IdleCycles                   319256                       # Number of cycles decode is idle
system.cpu.decode.RunCycles                   1213939                       # Number of cycles decode is running
system.cpu.decode.SquashCycles                  25173                       # Number of cycles decode is squashing
system.cpu.decode.UnblockCycles                 89951                       # Number of cycles decode is unblocking
system.cpu.dtb.rdAccesses                      605639                       # TLB accesses on read requests
system.cpu.dtb.rdMisses                          2110                       # TLB misses on read requests
system.cpu.dtb.wrAccesses                      210799                       # TLB accesses on write requests
system.cpu.dtb.wrMisses                           174                       # TLB misses on write requests
system.cpu.fetch.Branches                      518704                       # Number of branches that fetch encountered
system.cpu.fetch.CacheLines                    263684                       # Number of cache lines fetched
system.cpu.fetch.Cycles                       2291801                       # Number of cycles fetch has run and was not squashing or blocked
system.cpu.fetch.IcacheSquashes                  4654                       # Number of outstanding Icache misses that were squashed
system.cpu.fetch.Insts                        2975511                       # Number of instructions fetch has processed
system.cpu.fetch.MiscStallCycles                  141                       # Number of cycles fetch has spent waiting on interrupts, or bad addresses, or out of MSHRs
system.cpu.fetch.PendingQuiesceStallCycles            6                       # Number of stall cycles due to pending quiesce instructions
system.cpu.fetch.PendingTrapStallCycles           707                       # Number of stall cycles due to pending traps
system.cpu.fetch.SquashCycles                   50346                       # Number of cycles fetch has spent squashing
system.cpu.fetch.branchRate                  0.182917                       # Number of branch fetches per cycle
system.cpu.fetch.icacheStallCycles             354250                       # Number of cycles fetch is stalled on an Icache miss
system.cpu.fetch.predictedBranches             264755                       # Number of branches that fetch has predicted taken
system.cpu.fetch.rate                        1.049290                       # Number of inst fetches per cycle
system.cpu.fetch.rateDist::samples            2672078                       # Number of instructions fetched each cycle (Total)
system.cpu.fetch.rateDist::mean              1.959984                       # Number of instructions fetched each cycle (Total)
system.cpu.fetch.rateDist::stdev             1.928969                       # Number of instructions fetched each cycle (Total)
system.cpu.fetch.rateDist::underflows               0      0.00%      0.00% # Number of instructions fetched each cycle (Total)
system.cpu.fetch.rateDist::0                  1248999     46.74%     46.74% # Number of instructions fetched each cycle (Total)
system.cpu.fetch.rateDist::1                    83215      3.11%     49.86% # Number of instructions fetched each cycle (Total)
system.cpu.fetch.rateDist::2                    62258      2.33%     52.19% # Number of instructions fetched each cycle (Total)
system.cpu.fetch.rateDist::3                    80924      3.03%     55.22% # Number of instructions fetched each cycle (Total)
system.cpu.fetch.rateDist::4                  1196682     44.78%    100.00% # Number of instructions fetched each cycle (Total)
system.cpu.fetch.rateDist::overflows                0      0.00%    100.00% # Number of instructions fetched each cycle (Total)
system.cpu.fetch.rateDist::min_value                0                       # Number of instructions fetched each cycle (Total)
system.cpu.fetch.rateDist::max_value                4                       # Number of instructions fetched each cycle (Total)
system.cpu.fetch.rateDist::total              2672078                       # Number of instructions fetched each cycle (Total)
system.cpu.fp_regfile_reads                    136992                       # number of floating regfile reads
system.cpu.fp_regfile_writes                    74704                       # number of floating regfile writes
system.cpu.fuPool.fu_ticks_busy::IntALU(0)    230116400                       # Total ticks fu was busy
system.cpu.fuPool.fu_ticks_busy::IntALU(1)    230116400                       # Total ticks fu was busy
system.cpu.fuPool.fu_ticks_busy::IntALU(2)    230116400                       # Total ticks fu was busy
system.cpu.fuPool.fu_ticks_busy::IntALU(3)    230116400                       # Total ticks fu was busy
system.cpu.fuPool.fu_ticks_busy::IntALU(4)    230116400                       # Total ticks fu was busy
system.cpu.fuPool.fu_ticks_busy::IntALU(5)    230116000                       # Total ticks fu was busy
system.cpu.fuPool.fu_ticks_busy::IntMultDiv(0)      8833600                       # Total ticks fu was busy
system.cpu.fuPool.fu_ticks_busy::IntMultDiv(1)      8832800                       # Total ticks fu was busy
system.cpu.fuPool.fu_ticks_busy::FP_ALU(0)       611200                       # Total ticks fu was busy
system.cpu.fuPool.fu_ticks_busy::FP_ALU(1)       611200                       # Total ticks fu was busy
system.cpu.fuPool.fu_ticks_busy::FP_ALU(2)       610800                       # Total ticks fu was busy
system.cpu.fuPool.fu_ticks_busy::FP_ALU(3)       610800                       # Total ticks fu was busy
system.cpu.fuPool.fu_ticks_busy::FP_MultDiv(0)            0                       # Total ticks fu was busy
system.cpu.fuPool.fu_ticks_busy::FP_MultDiv(1)            0                       # Total ticks fu was busy
system.cpu.fuPool.fu_ticks_busy::SIMD_Unit(0)      5266400                       # Total ticks fu was busy
system.cpu.fuPool.fu_ticks_busy::SIMD_Unit(1)      5201200                       # Total ticks fu was busy
system.cpu.fuPool.fu_ticks_busy::SIMD_Unit(2)      5132800                       # Total ticks fu was busy
system.cpu.fuPool.fu_ticks_busy::SIMD_Unit(3)      5140800                       # Total ticks fu was busy
system.cpu.fuPool.fu_ticks_busy::PredALU(0)            0                       # Total ticks fu was busy
system.cpu.fuPool.fu_ticks_busy::RdWrPort(0)     83178400                       # Total ticks fu was busy
system.cpu.fuPool.fu_ticks_busy::RdWrPort(1)     83132000                       # Total ticks fu was busy
system.cpu.fuPool.fu_ticks_busy::RdWrPort(2)     83156000                       # Total ticks fu was busy
system.cpu.fuPool.fu_ticks_busy::RdWrPort(3)     83118000                       # Total ticks fu was busy
system.cpu.fuPool.fu_ticks_busy::IprPort(0)            0                       # Total ticks fu was busy
system.cpu.fuPool.fu_ticks_busy::total     1754134000                       # Total ticks fu was busy
system.cpu.icache.prefetcher.num_hwpf_issued            0                       # number of hwpf issued
system.cpu.icache.prefetcher.pfBufferHit            0                       # number of redundant prefetches already in prefetch queue
system.cpu.icache.prefetcher.pfIdentified            0                       # number of prefetch candidates identified
system.cpu.icache.prefetcher.pfInCache              0                       # number of redundant prefetches already in cache/mshr dropped
system.cpu.icache.prefetcher.pfRemovedFull            0                       # number of prefetches dropped due to prefetch queue size
system.cpu.icache.prefetcher.pfSpanPage             0                       # number of prefetches that crossed the page
system.cpu.idleCycles                          163660                       # Total number of cycles that the CPU has spent unscheduled due to idling
system.cpu.iew.branchMispredicts                29721                       # Number of branch mispredicts detected at execute
system.cpu.iew.exec_branches                   402750                       # Number of branches executed
system.cpu.iew.exec_nop                             0                       # number of nop insts executed
system.cpu.iew.exec_rate                     1.543723                       # Inst execution rate
system.cpu.iew.exec_refs                       818120                       # number of memory reference insts executed
system.cpu.iew.exec_stores                     210736                       # Number of stores executed
system.cpu.iew.exec_swp                             0                       # number of swp insts executed
system.cpu.iew.iewBlockCycles                  690945                       # Number of cycles IEW is blocking
system.cpu.iew.iewDispLoadInsts                638727                       # Number of dispatched load instructions
system.cpu.iew.iewDispNonSpecInsts                938                       # Number of dispatched non-speculative instructions
system.cpu.iew.iewDispSquashedInsts               580                       # Number of squashed instructions skipped by dispatch
system.cpu.iew.iewDispStoreInsts               221694                       # Number of dispatched store instructions
system.cpu.iew.iewDispatchedInsts             4735247                       # Number of instructions dispatched to IQ
system.cpu.iew.iewExecLoadInsts                607384                       # Number of load instructions executed
system.cpu.iew.iewExecSquashedInsts             35605                       # Number of squashed instructions skipped in execute
system.cpu.iew.iewExecutedInsts               4377593                       # Number of executed instructions
system.cpu.iew.iewIQFullEvents                   3264                       # Number of times the IQ has become full, causing a stall
system.cpu.iew.iewIdleCycles                        0                       # Number of cycles IEW is idle
system.cpu.iew.iewLSQFullEvents                  8559                       # Number of times the LSQ has become full, causing a stall
system.cpu.iew.iewSquashCycles                  25173                       # Number of cycles IEW is squashing
system.cpu.iew.iewUnblockCycles                 14636                       # Number of cycles IEW is unblocking
system.cpu.iew.lsq.thread0.blockedLoads             0                       # Number of blocked loads due to partial load-store forwarding
system.cpu.iew.lsq.thread0.cacheBlocked           597                       # Number of times an access to memory failed due to the cache being blocked
system.cpu.iew.lsq.thread0.forwLoads            42163                       # Number of loads that had data forwarded from stores
system.cpu.iew.lsq.thread0.ignoredResponses          271                       # Number of memory responses ignored because the instruction is squashed
system.cpu.iew.lsq.thread0.invAddrLoads             0                       # Number of loads ignored due to an invalid address
system.cpu.iew.lsq.thread0.invAddrSwpfs             0                       # Number of software prefetches ignored due to an invalid address
system.cpu.iew.lsq.thread0.memOrderViolation           89                       # Number of memory ordering violations
system.cpu.iew.lsq.thread0.rescheduledLoads           35                       # Number of loads that were rescheduled
system.cpu.iew.lsq.thread0.squashedLoads       117922                       # Number of loads squashed
system.cpu.iew.lsq.thread0.squashedStores        30644                       # Number of stores squashed
system.cpu.iew.memOrderViolationEvents             89                       # Number of memory order violations
system.cpu.iew.predictedNotTakenIncorrect        21254                       # Number of branches that were predicted not taken incorrectly
system.cpu.iew.predictedTakenIncorrect           8467                       # Number of branches that were predicted taken incorrectly
system.cpu.iew.wb_consumers                   6063038                       # num instructions consuming a value
system.cpu.iew.wb_count                       4354862                       # cumulative count of insts written-back
system.cpu.iew.wb_fanout                     0.569900                       # average fanout of values written-back
system.cpu.iew.wb_producers                   3455328                       # num instructions producing a value
system.cpu.iew.wb_rate                       1.535707                       # insts written-back per cycle
system.cpu.iew.wb_sent                        4362174                       # cumulative count of insts sent to commit
system.cpu.int_regfile_reads                  6766943                       # number of integer regfile reads
system.cpu.int_regfile_writes                 3743271                       # number of integer regfile writes
system.cpu.ipc                               0.773221                       # IPC: Instructions Per Cycle
system.cpu.ipc_total                         0.773221                       # IPC: Total IPC of All Threads
system.cpu.iq.FU_type_0::No_OpClass             27863      0.63%      0.63% # Type of FU issued
system.cpu.iq.FU_type_0::IntAlu               3451746     78.21%     78.85% # Type of FU issued
system.cpu.iq.FU_type_0::IntMult                 2787      0.06%     78.91% # Type of FU issued
system.cpu.iq.FU_type_0::IntDiv                 41379      0.94%     79.85% # Type of FU issued
system.cpu.iq.FU_type_0::FloatAdd                4856      0.11%     79.96% # Type of FU issued
system.cpu.iq.FU_type_0::FloatCmp                   0      0.00%     79.96% # Type of FU issued
system.cpu.iq.FU_type_0::FloatCvt                1254      0.03%     79.98% # Type of FU issued
system.cpu.iq.FU_type_0::FloatMult                  0      0.00%     79.98% # Type of FU issued
system.cpu.iq.FU_type_0::FloatMultAcc               0      0.00%     79.98% # Type of FU issued
system.cpu.iq.FU_type_0::FloatDiv                   0      0.00%     79.98% # Type of FU issued
system.cpu.iq.FU_type_0::FloatMisc                  0      0.00%     79.98% # Type of FU issued
system.cpu.iq.FU_type_0::FloatSqrt                  0      0.00%     79.98% # Type of FU issued
system.cpu.iq.FU_type_0::SimdAdd                 6940      0.16%     80.14% # Type of FU issued
system.cpu.iq.FU_type_0::SimdAddAcc                 0      0.00%     80.14% # Type of FU issued
system.cpu.iq.FU_type_0::SimdAlu                16428      0.37%     80.51% # Type of FU issued
system.cpu.iq.FU_type_0::SimdCmp                    0      0.00%     80.51% # Type of FU issued
system.cpu.iq.FU_type_0::SimdCvt                15566      0.35%     80.87% # Type of FU issued
system.cpu.iq.FU_type_0::SimdMisc               10631      0.24%     81.11% # Type of FU issued
system.cpu.iq.FU_type_0::SimdMult                   0      0.00%     81.11% # Type of FU issued
system.cpu.iq.FU_type_0::SimdMultAcc                0      0.00%     81.11% # Type of FU issued
system.cpu.iq.FU_type_0::SimdShift               2288      0.05%     81.16% # Type of FU issued
system.cpu.iq.FU_type_0::SimdShiftAcc               0      0.00%     81.16% # Type of FU issued
system.cpu.iq.FU_type_0::SimdDiv                    0      0.00%     81.16% # Type of FU issued
system.cpu.iq.FU_type_0::SimdSqrt                   0      0.00%     81.16% # Type of FU issued
system.cpu.iq.FU_type_0::SimdFloatAdd               0      0.00%     81.16% # Type of FU issued
system.cpu.iq.FU_type_0::SimdFloatAlu               0      0.00%     81.16% # Type of FU issued
system.cpu.iq.FU_type_0::SimdFloatCmp               0      0.00%     81.16% # Type of FU issued
system.cpu.iq.FU_type_0::SimdFloatCvt               0      0.00%     81.16% # Type of FU issued
system.cpu.iq.FU_type_0::SimdFloatDiv               0      0.00%     81.16% # Type of FU issued
system.cpu.iq.FU_type_0::SimdFloatMisc              0      0.00%     81.16% # Type of FU issued
system.cpu.iq.FU_type_0::SimdFloatMult              0      0.00%     81.16% # Type of FU issued
system.cpu.iq.FU_type_0::SimdFloatMultAcc            0      0.00%     81.16% # Type of FU issued
system.cpu.iq.FU_type_0::SimdFloatSqrt              0      0.00%     81.16% # Type of FU issued
system.cpu.iq.FU_type_0::SimdReduceAdd              0      0.00%     81.16% # Type of FU issued
system.cpu.iq.FU_type_0::SimdReduceAlu              0      0.00%     81.16% # Type of FU issued
system.cpu.iq.FU_type_0::SimdReduceCmp              0      0.00%     81.16% # Type of FU issued
system.cpu.iq.FU_type_0::SimdFloatReduceAdd            0      0.00%     81.16% # Type of FU issued
system.cpu.iq.FU_type_0::SimdFloatReduceCmp            0      0.00%     81.16% # Type of FU issued
system.cpu.iq.FU_type_0::SimdAes                    0      0.00%     81.16% # Type of FU issued
system.cpu.iq.FU_type_0::SimdAesMix                 0      0.00%     81.16% # Type of FU issued
system.cpu.iq.FU_type_0::SimdSha1Hash               0      0.00%     81.16% # Type of FU issued
system.cpu.iq.FU_type_0::SimdSha1Hash2              0      0.00%     81.16% # Type of FU issued
system.cpu.iq.FU_type_0::SimdSha256Hash             0      0.00%     81.16% # Type of FU issued
system.cpu.iq.FU_type_0::SimdSha256Hash2            0      0.00%     81.16% # Type of FU issued
system.cpu.iq.FU_type_0::SimdShaSigma2              0      0.00%     81.16% # Type of FU issued
system.cpu.iq.FU_type_0::SimdShaSigma3              0      0.00%     81.16% # Type of FU issued
system.cpu.iq.FU_type_0::SimdPredAlu                0      0.00%     81.16% # Type of FU issued
system.cpu.iq.FU_type_0::MemRead               591827     13.41%     94.57% # Type of FU issued
system.cpu.iq.FU_type_0::MemWrite              199628      4.52%     99.09% # Type of FU issued
system.cpu.iq.FU_type_0::FloatMemRead           26197      0.59%     99.69% # Type of FU issued
system.cpu.iq.FU_type_0::FloatMemWrite          13811      0.31%    100.00% # Type of FU issued
system.cpu.iq.FU_type_0::IprAccess                  0      0.00%    100.00% # Type of FU issued
system.cpu.iq.FU_type_0::InstPrefetch               0      0.00%    100.00% # Type of FU issued
system.cpu.iq.FU_type_0::total                4413201                       # Type of FU issued
system.cpu.iq.fp_alu_accesses                  100148                       # Number of floating point alu accesses
system.cpu.iq.fp_inst_queue_reads              201677                       # Number of floating instruction queue reads
system.cpu.iq.fp_inst_queue_wakeup_accesses        96663                       # Number of floating instruction queue wakeup accesses
system.cpu.iq.fp_inst_queue_writes             140671                       # Number of floating instruction queue writes
system.cpu.iq.fu_busy_cnt                           0                       # FU busy when requested
system.cpu.iq.fu_busy_rate                          0                       # FU busy rate (busy events/executed inst)
system.cpu.iq.fu_full::No_OpClass                   0                       # attempts to use FU when none available
system.cpu.iq.fu_full::IntAlu                       0                       # attempts to use FU when none available
system.cpu.iq.fu_full::IntMult                      0                       # attempts to use FU when none available
system.cpu.iq.fu_full::IntDiv                       0                       # attempts to use FU when none available
system.cpu.iq.fu_full::FloatAdd                     0                       # attempts to use FU when none available
system.cpu.iq.fu_full::FloatCmp                     0                       # attempts to use FU when none available
system.cpu.iq.fu_full::FloatCvt                     0                       # attempts to use FU when none available
system.cpu.iq.fu_full::FloatMult                    0                       # attempts to use FU when none available
system.cpu.iq.fu_full::FloatMultAcc                 0                       # attempts to use FU when none available
system.cpu.iq.fu_full::FloatDiv                     0                       # attempts to use FU when none available
system.cpu.iq.fu_full::FloatMisc                    0                       # attempts to use FU when none available
system.cpu.iq.fu_full::FloatSqrt                    0                       # attempts to use FU when none available
system.cpu.iq.fu_full::SimdAdd                      0                       # attempts to use FU when none available
system.cpu.iq.fu_full::SimdAddAcc                   0                       # attempts to use FU when none available
system.cpu.iq.fu_full::SimdAlu                      0                       # attempts to use FU when none available
system.cpu.iq.fu_full::SimdCmp                      0                       # attempts to use FU when none available
system.cpu.iq.fu_full::SimdCvt                      0                       # attempts to use FU when none available
system.cpu.iq.fu_full::SimdMisc                     0                       # attempts to use FU when none available
system.cpu.iq.fu_full::SimdMult                     0                       # attempts to use FU when none available
system.cpu.iq.fu_full::SimdMultAcc                  0                       # attempts to use FU when none available
system.cpu.iq.fu_full::SimdShift                    0                       # attempts to use FU when none available
system.cpu.iq.fu_full::SimdShiftAcc                 0                       # attempts to use FU when none available
system.cpu.iq.fu_full::SimdDiv                      0                       # attempts to use FU when none available
system.cpu.iq.fu_full::SimdSqrt                     0                       # attempts to use FU when none available
system.cpu.iq.fu_full::SimdFloatAdd                 0                       # attempts to use FU when none available
system.cpu.iq.fu_full::SimdFloatAlu                 0                       # attempts to use FU when none available
system.cpu.iq.fu_full::SimdFloatCmp                 0                       # attempts to use FU when none available
system.cpu.iq.fu_full::SimdFloatCvt                 0                       # attempts to use FU when none available
system.cpu.iq.fu_full::SimdFloatDiv                 0                       # attempts to use FU when none available
system.cpu.iq.fu_full::SimdFloatMisc                0                       # attempts to use FU when none available
system.cpu.iq.fu_full::SimdFloatMult                0                       # attempts to use FU when none available
system.cpu.iq.fu_full::SimdFloatMultAcc             0                       # attempts to use FU when none available
system.cpu.iq.fu_full::SimdFloatSqrt                0                       # attempts to use FU when none available
system.cpu.iq.fu_full::SimdReduceAdd                0                       # attempts to use FU when none available
system.cpu.iq.fu_full::SimdReduceAlu                0                       # attempts to use FU when none available
system.cpu.iq.fu_full::SimdReduceCmp                0                       # attempts to use FU when none available
system.cpu.iq.fu_full::SimdFloatReduceAdd            0                       # attempts to use FU when none available
system.cpu.iq.fu_full::SimdFloatReduceCmp            0                       # attempts to use FU when none available
system.cpu.iq.fu_full::SimdAes                      0                       # attempts to use FU when none available
system.cpu.iq.fu_full::SimdAesMix                   0                       # attempts to use FU when none available
system.cpu.iq.fu_full::SimdSha1Hash                 0                       # attempts to use FU when none available
system.cpu.iq.fu_full::SimdSha1Hash2                0                       # attempts to use FU when none available
system.cpu.iq.fu_full::SimdSha256Hash               0                       # attempts to use FU when none available
system.cpu.iq.fu_full::SimdSha256Hash2              0                       # attempts to use FU when none available
system.cpu.iq.fu_full::SimdShaSigma2                0                       # attempts to use FU when none available
system.cpu.iq.fu_full::SimdShaSigma3                0                       # attempts to use FU when none available
system.cpu.iq.fu_full::SimdPredAlu                  0                       # attempts to use FU when none available
system.cpu.iq.fu_full::MemRead                      0                       # attempts to use FU when none available
system.cpu.iq.fu_full::MemWrite                     0                       # attempts to use FU when none available
system.cpu.iq.fu_full::FloatMemRead                 0                       # attempts to use FU when none available
system.cpu.iq.fu_full::FloatMemWrite                0                       # attempts to use FU when none available
system.cpu.iq.fu_full::IprAccess                    0                       # attempts to use FU when none available
system.cpu.iq.fu_full::InstPrefetch                 0                       # attempts to use FU when none available
system.cpu.iq.int_alu_accesses                4285190                       # Number of integer alu accesses
system.cpu.iq.int_inst_queue_reads           11315814                       # Number of integer instruction queue reads
system.cpu.iq.int_inst_queue_wakeup_accesses      4258199                       # Number of integer instruction queue wakeup accesses
system.cpu.iq.int_inst_queue_writes           5493849                       # Number of integer instruction queue writes
system.cpu.iq.iqInstsAdded                    4734121                       # Number of instructions added to the IQ (excludes non-spec)
system.cpu.iq.iqInstsIssued                   4413201                       # Number of instructions issued
system.cpu.iq.iqNonSpecInstsAdded                1126                       # Number of non-speculative instructions added to the IQ
system.cpu.iq.iqSquashedInstsExamined          899187                       # Number of squashed instructions iterated over during squash; mainly for profiling
system.cpu.iq.iqSquashedInstsIssued             19014                       # Number of squashed instructions issued
system.cpu.iq.iqSquashedNonSpecRemoved            384                       # Number of squashed non-spec instructions that were removed
system.cpu.iq.iqSquashedOperandsExamined      1332710                       # Number of squashed operands that are examined and possibly removed from graph
system.cpu.iq.issued_per_cycle::samples       2672078                       # Number of insts issued each cycle
system.cpu.iq.issued_per_cycle::mean         1.651599                       # Number of insts issued each cycle
system.cpu.iq.issued_per_cycle::stdev        1.667884                       # Number of insts issued each cycle
system.cpu.iq.issued_per_cycle::underflows            0      0.00%      0.00% # Number of insts issued each cycle
system.cpu.iq.issued_per_cycle::0             1177076     44.05%     44.05% # Number of insts issued each cycle
system.cpu.iq.issued_per_cycle::1              188869      7.07%     51.12% # Number of insts issued each cycle
system.cpu.iq.issued_per_cycle::2              318260     11.91%     63.03% # Number of insts issued each cycle
system.cpu.iq.issued_per_cycle::3              363680     13.61%     76.64% # Number of insts issued each cycle
system.cpu.iq.issued_per_cycle::4              624193     23.36%    100.00% # Number of insts issued each cycle
system.cpu.iq.issued_per_cycle::overflows            0      0.00%    100.00% # Number of insts issued each cycle
system.cpu.iq.issued_per_cycle::min_value            0                       # Number of insts issued each cycle
system.cpu.iq.issued_per_cycle::max_value            4                       # Number of insts issued each cycle
system.cpu.iq.issued_per_cycle::total         2672078                       # Number of insts issued each cycle
system.cpu.iq.rate                           1.556280                       # Inst issue rate
system.cpu.iq.vec_alu_accesses                      0                       # Number of vector alu accesses
system.cpu.iq.vec_inst_queue_reads                  0                       # Number of vector instruction queue reads
system.cpu.iq.vec_inst_queue_wakeup_accesses            0                       # Number of vector instruction queue wakeup accesses
system.cpu.iq.vec_inst_queue_writes                 0                       # Number of vector instruction queue writes
system.cpu.itb.rdAccesses                           0                       # TLB accesses on read requests
system.cpu.itb.rdMisses                             0                       # TLB misses on read requests
system.cpu.itb.wrAccesses                      263801                       # TLB accesses on write requests
system.cpu.itb.wrMisses                           368                       # TLB misses on write requests
system.cpu.memDep0.conflictingLoads             10026                       # Number of conflicting loads.
system.cpu.memDep0.conflictingStores             4178                       # Number of conflicting stores.
system.cpu.memDep0.insertedLoads               638727                       # Number of loads inserted to the mem dependence unit.
system.cpu.memDep0.insertedStores              221694                       # Number of stores inserted to the mem dependence unit.
system.cpu.misc_regfile_reads                 1660208                       # number of misc regfile reads
system.cpu.misc_regfile_writes                    684                       # number of misc regfile writes
system.cpu.numCycles                          2835738                       # number of cpu cycles simulated
system.cpu.numWorkItemsCompleted                    0                       # number of work items this cpu completed
system.cpu.numWorkItemsStarted                      0                       # number of work items this cpu started
system.cpu.process.numSyscalls                     57                       # Number of system calls
system.cpu.rename.BlockCycles                  837577                       # Number of cycles rename is blocking
system.cpu.rename.CommittedMaps               5202861                       # Number of HB maps that are committed
system.cpu.rename.FullRegisterEvents               18                       # Number of times there has been no free registers
system.cpu.rename.IQFullEvents                  47012                       # Number of times rename has blocked due to IQ full
system.cpu.rename.IdleCycles                   370376                       # Number of cycles rename is idle
system.cpu.rename.LQFullEvents                  16504                       # Number of times rename has blocked due to LQ full
system.cpu.rename.ROBFullEvents                  4692                       # Number of times rename has blocked due to ROB full
system.cpu.rename.RenameLookups              12735930                       # Number of register rename lookups that rename has made
system.cpu.rename.RenamedInsts                4881328                       # Number of instructions processed by rename
system.cpu.rename.RenamedOperands             6615715                       # Number of destination operands rename has renamed
system.cpu.rename.RunCycles                   1244234                       # Number of cycles rename is running
system.cpu.rename.SQFullEvents                  74057                       # Number of times rename has blocked due to SQ full
system.cpu.rename.SquashCycles                  25173                       # Number of cycles rename is squashing
system.cpu.rename.UnblockCycles                175032                       # Number of cycles rename is unblocking
system.cpu.rename.UndoneMaps                  1412831                       # Number of HB maps that are undone due to squashing
system.cpu.rename.fp_rename_lookups            171903                       # Number of floating rename lookups
system.cpu.rename.int_rename_lookups          7723900                       # Number of integer rename lookups
system.cpu.rename.serializeStallCycles          19686                       # count of cycles rename stalled for serializing inst
system.cpu.rename.serializingInsts                881                       # count of serializing insts renamed
system.cpu.rename.skidInsts                    208299                       # count of insts added to the skid buffer
system.cpu.rename.tempSerializingInsts            932                       # count of temporary serializing insts renamed
system.cpu.rob.rob_reads                      6527310                       # The number of ROB reads
system.cpu.rob.rob_writes                     9716781                       # The number of ROB writes
system.cpu.timesIdled                            1604                       # Number of times that the entire CPU went into an idle state and unscheduled itself
system.l2bus.snoop_filter.hit_multi_requests           12                       # Number of requests hitting in the snoop filter with multiple (>1) holders of the requested data.
system.l2bus.snoop_filter.hit_multi_snoops            0                       # Number of snoops hitting in the snoop filter with multiple (>1) holders of the requested data.
system.l2bus.snoop_filter.hit_single_requests        18444                       # Number of requests hitting in the snoop filter with a single holder of the requested data.
system.l2bus.snoop_filter.hit_single_snoops          434                       # Number of snoops hitting in the snoop filter with a single holder of the requested data.
system.l2bus.snoop_filter.tot_requests          38168                       # Total number of requests made to the snoop filter.
system.l2bus.snoop_filter.tot_snoops              434                       # Total number of snoops made to the snoop filter.
system.l2cache.prefetcher.num_hwpf_issued          693                       # number of hwpf issued
system.l2cache.prefetcher.pfBufferHit               0                       # number of redundant prefetches already in prefetch queue
system.l2cache.prefetcher.pfIdentified            693                       # number of prefetch candidates identified
system.l2cache.prefetcher.pfInCache                 0                       # number of redundant prefetches already in cache/mshr dropped
system.l2cache.prefetcher.pfRemovedFull             0                       # number of prefetches dropped due to prefetch queue size
system.l2cache.prefetcher.pfSpanPage              127                       # number of prefetches that crossed the page
system.membus.snoop_filter.hit_multi_requests            0                       # Number of requests hitting in the snoop filter with multiple (>1) holders of the requested data.
system.membus.snoop_filter.hit_multi_snoops            0                       # Number of snoops hitting in the snoop filter with multiple (>1) holders of the requested data.
system.membus.snoop_filter.hit_single_requests         9453                       # Number of requests hitting in the snoop filter with a single holder of the requested data.
system.membus.snoop_filter.hit_single_snoops            0                       # Number of snoops hitting in the snoop filter with a single holder of the requested data.
system.membus.snoop_filter.tot_requests         23028                       # Total number of requests made to the snoop filter.
system.membus.snoop_filter.tot_snoops               0                       # Total number of snoops made to the snoop filter.
system.membus.pwrStateResidencyTicks::UNDEFINED   1134294800                       # Cumulative time (in ticks) in various power states
system.membus.trans_dist::ReadResp              12182                       # Transaction distribution
system.membus.trans_dist::WritebackDirty         1339                       # Transaction distribution
system.membus.trans_dist::CleanEvict             8114                       # Transaction distribution
system.membus.trans_dist::ReadExReq              1393                       # Transaction distribution
system.membus.trans_dist::ReadExResp             1393                       # Transaction distribution
system.membus.trans_dist::ReadSharedReq         12182                       # Transaction distribution
system.membus.pkt_count_system.l2cache.mem_side::system.mem_ctrl.port        36603                       # Packet count per connected master and slave (bytes)
system.membus.pkt_count_system.l2cache.mem_side::total        36603                       # Packet count per connected master and slave (bytes)
system.membus.pkt_count::total                  36603                       # Packet count per connected master and slave (bytes)
system.membus.pkt_size_system.l2cache.mem_side::system.mem_ctrl.port       954496                       # Cumulative packet size per connected master and slave (bytes)
system.membus.pkt_size_system.l2cache.mem_side::total       954496                       # Cumulative packet size per connected master and slave (bytes)
system.membus.pkt_size::total                  954496                       # Cumulative packet size per connected master and slave (bytes)
system.membus.snoops                                0                       # Total snoops (count)
system.membus.snoopTraffic                          0                       # Total snoop traffic (bytes)
system.membus.snoop_fanout::samples             13575                       # Request fanout histogram
system.membus.snoop_fanout::mean                    0                       # Request fanout histogram
system.membus.snoop_fanout::stdev                   0                       # Request fanout histogram
system.membus.snoop_fanout::underflows              0      0.00%      0.00% # Request fanout histogram
system.membus.snoop_fanout::0                   13575    100.00%    100.00% # Request fanout histogram
system.membus.snoop_fanout::1                       0      0.00%    100.00% # Request fanout histogram
system.membus.snoop_fanout::overflows               0      0.00%    100.00% # Request fanout histogram
system.membus.snoop_fanout::min_value               0                       # Request fanout histogram
system.membus.snoop_fanout::max_value               0                       # Request fanout histogram
system.membus.snoop_fanout::total               13575                       # Request fanout histogram
system.membus.reqLayer2.occupancy            11382218                       # Layer occupancy (ticks)
system.membus.reqLayer2.utilization               1.0                       # Layer utilization (%)
system.membus.respLayer0.occupancy           29466382                       # Layer occupancy (ticks)
system.membus.respLayer0.utilization              2.6                       # Layer utilization (%)
system.l2bus.pwrStateResidencyTicks::UNDEFINED   1134294800                       # Cumulative time (in ticks) in various power states
system.l2bus.trans_dist::ReadResp               17579                       # Transaction distribution
system.l2bus.trans_dist::WritebackDirty          4128                       # Transaction distribution
system.l2bus.trans_dist::CleanEvict             23849                       # Transaction distribution
system.l2bus.trans_dist::HardPFReq                971                       # Transaction distribution
system.l2bus.trans_dist::UpgradeReq                 1                       # Transaction distribution
system.l2bus.trans_dist::UpgradeResp                1                       # Transaction distribution
system.l2bus.trans_dist::ReadExReq               2145                       # Transaction distribution
system.l2bus.trans_dist::ReadExResp              2145                       # Transaction distribution
system.l2bus.trans_dist::ReadSharedReq          17579                       # Transaction distribution
system.l2bus.pkt_count_system.cpu.icache.mem_side::system.l2cache.cpu_side         8290                       # Packet count per connected master and slave (bytes)
system.l2bus.pkt_count_system.cpu.dcache.mem_side::system.l2cache.cpu_side        49600                       # Packet count per connected master and slave (bytes)
system.l2bus.pkt_count::total                   57890                       # Packet count per connected master and slave (bytes)
system.l2bus.pkt_size_system.cpu.icache.mem_side::system.l2cache.cpu_side       182208                       # Cumulative packet size per connected master and slave (bytes)
system.l2bus.pkt_size_system.cpu.dcache.mem_side::system.l2cache.cpu_side      1258432                       # Cumulative packet size per connected master and slave (bytes)
system.l2bus.pkt_size::total                  1440640                       # Cumulative packet size per connected master and slave (bytes)
system.l2bus.snoops                             10508                       # Total snoops (count)
system.l2bus.snoopTraffic                       85888                       # Total snoop traffic (bytes)
system.l2bus.snoop_fanout::samples              30230                       # Request fanout histogram
system.l2bus.snoop_fanout::mean              0.014787                       # Request fanout histogram
system.l2bus.snoop_fanout::stdev             0.120700                       # Request fanout histogram
system.l2bus.snoop_fanout::underflows               0      0.00%      0.00% # Request fanout histogram
system.l2bus.snoop_fanout::0                    29783     98.52%     98.52% # Request fanout histogram
system.l2bus.snoop_fanout::1                      447      1.48%    100.00% # Request fanout histogram
system.l2bus.snoop_fanout::2                        0      0.00%    100.00% # Request fanout histogram
system.l2bus.snoop_fanout::overflows                0      0.00%    100.00% # Request fanout histogram
system.l2bus.snoop_fanout::min_value                0                       # Request fanout histogram
system.l2bus.snoop_fanout::max_value                1                       # Request fanout histogram
system.l2bus.snoop_fanout::total                30230                       # Request fanout histogram
system.l2bus.respLayer1.occupancy            20249599                       # Layer occupancy (ticks)
system.l2bus.respLayer1.utilization               1.8                       # Layer utilization (%)
system.l2bus.reqLayer0.occupancy             18938228                       # Layer occupancy (ticks)
system.l2bus.reqLayer0.utilization                1.7                       # Layer utilization (%)
system.l2bus.respLayer0.occupancy             3420000                       # Layer occupancy (ticks)
system.l2bus.respLayer0.utilization               0.3                       # Layer utilization (%)
system.clk_domain.clock                           400                       # Clock period in ticks
system.clk_domain.voltage_domain.voltage            1                       # Voltage in Volts
system.cpu.pwrStateResidencyTicks::ON      1134294800                       # Cumulative time (in ticks) in various power states
system.cpu.icache.pwrStateResidencyTicks::UNDEFINED   1134294800                       # Cumulative time (in ticks) in various power states
system.cpu.icache.demand_hits::.cpu.inst       260141                       # number of demand (read+write) hits
system.cpu.icache.demand_hits::total           260141                       # number of demand (read+write) hits
system.cpu.icache.overall_hits::.cpu.inst       260141                       # number of overall hits
system.cpu.icache.overall_hits::total          260141                       # number of overall hits
system.cpu.icache.demand_misses::.cpu.inst         3542                       # number of demand (read+write) misses
system.cpu.icache.demand_misses::total           3542                       # number of demand (read+write) misses
system.cpu.icache.overall_misses::.cpu.inst         3542                       # number of overall misses
system.cpu.icache.overall_misses::total          3542                       # number of overall misses
system.cpu.icache.demand_miss_latency::.cpu.inst    176353200                       # number of demand (read+write) miss cycles
system.cpu.icache.demand_miss_latency::total    176353200                       # number of demand (read+write) miss cycles
system.cpu.icache.overall_miss_latency::.cpu.inst    176353200                       # number of overall miss cycles
system.cpu.icache.overall_miss_latency::total    176353200                       # number of overall miss cycles
system.cpu.icache.demand_accesses::.cpu.inst       263683                       # number of demand (read+write) accesses
system.cpu.icache.demand_accesses::total       263683                       # number of demand (read+write) accesses
system.cpu.icache.overall_accesses::.cpu.inst       263683                       # number of overall (read+write) accesses
system.cpu.icache.overall_accesses::total       263683                       # number of overall (read+write) accesses
system.cpu.icache.demand_miss_rate::.cpu.inst     0.013433                       # miss rate for demand accesses
system.cpu.icache.demand_miss_rate::total     0.013433                       # miss rate for demand accesses
system.cpu.icache.overall_miss_rate::.cpu.inst     0.013433                       # miss rate for overall accesses
system.cpu.icache.overall_miss_rate::total     0.013433                       # miss rate for overall accesses
system.cpu.icache.demand_avg_miss_latency::.cpu.inst 49789.158667                       # average overall miss latency
system.cpu.icache.demand_avg_miss_latency::total 49789.158667                       # average overall miss latency
system.cpu.icache.overall_avg_miss_latency::.cpu.inst 49789.158667                       # average overall miss latency
system.cpu.icache.overall_avg_miss_latency::total 49789.158667                       # average overall miss latency
system.cpu.icache.blocked_cycles::no_mshrs          187                       # number of cycles access was blocked
system.cpu.icache.blocked_cycles::no_targets            0                       # number of cycles access was blocked
system.cpu.icache.blocked::no_mshrs                 4                       # number of cycles access was blocked
system.cpu.icache.blocked::no_targets               0                       # number of cycles access was blocked
system.cpu.icache.avg_blocked_cycles::no_mshrs    46.750000                       # average number of cycles each access was blocked
system.cpu.icache.avg_blocked_cycles::no_targets          nan                       # average number of cycles each access was blocked
system.cpu.icache.demand_mshr_hits::.cpu.inst          692                       # number of demand (read+write) MSHR hits
system.cpu.icache.demand_mshr_hits::total          692                       # number of demand (read+write) MSHR hits
system.cpu.icache.overall_mshr_hits::.cpu.inst          692                       # number of overall MSHR hits
system.cpu.icache.overall_mshr_hits::total          692                       # number of overall MSHR hits
system.cpu.icache.demand_mshr_misses::.cpu.inst         2850                       # number of demand (read+write) MSHR misses
system.cpu.icache.demand_mshr_misses::total         2850                       # number of demand (read+write) MSHR misses
system.cpu.icache.overall_mshr_misses::.cpu.inst         2850                       # number of overall MSHR misses
system.cpu.icache.overall_mshr_misses::total         2850                       # number of overall MSHR misses
system.cpu.icache.demand_mshr_miss_latency::.cpu.inst    143376800                       # number of demand (read+write) MSHR miss cycles
system.cpu.icache.demand_mshr_miss_latency::total    143376800                       # number of demand (read+write) MSHR miss cycles
system.cpu.icache.overall_mshr_miss_latency::.cpu.inst    143376800                       # number of overall MSHR miss cycles
system.cpu.icache.overall_mshr_miss_latency::total    143376800                       # number of overall MSHR miss cycles
system.cpu.icache.demand_mshr_miss_rate::.cpu.inst     0.010808                       # mshr miss rate for demand accesses
system.cpu.icache.demand_mshr_miss_rate::total     0.010808                       # mshr miss rate for demand accesses
system.cpu.icache.overall_mshr_miss_rate::.cpu.inst     0.010808                       # mshr miss rate for overall accesses
system.cpu.icache.overall_mshr_miss_rate::total     0.010808                       # mshr miss rate for overall accesses
system.cpu.icache.demand_avg_mshr_miss_latency::.cpu.inst 50307.649123                       # average overall mshr miss latency
system.cpu.icache.demand_avg_mshr_miss_latency::total 50307.649123                       # average overall mshr miss latency
system.cpu.icache.overall_avg_mshr_miss_latency::.cpu.inst 50307.649123                       # average overall mshr miss latency
system.cpu.icache.overall_avg_mshr_miss_latency::total 50307.649123                       # average overall mshr miss latency
system.cpu.icache.replacements                   2593                       # number of replacements
system.cpu.icache.ReadReq_hits::.cpu.inst       260141                       # number of ReadReq hits
system.cpu.icache.ReadReq_hits::total          260141                       # number of ReadReq hits
system.cpu.icache.ReadReq_misses::.cpu.inst         3542                       # number of ReadReq misses
system.cpu.icache.ReadReq_misses::total          3542                       # number of ReadReq misses
system.cpu.icache.ReadReq_miss_latency::.cpu.inst    176353200                       # number of ReadReq miss cycles
system.cpu.icache.ReadReq_miss_latency::total    176353200                       # number of ReadReq miss cycles
system.cpu.icache.ReadReq_accesses::.cpu.inst       263683                       # number of ReadReq accesses(hits+misses)
system.cpu.icache.ReadReq_accesses::total       263683                       # number of ReadReq accesses(hits+misses)
system.cpu.icache.ReadReq_miss_rate::.cpu.inst     0.013433                       # miss rate for ReadReq accesses
system.cpu.icache.ReadReq_miss_rate::total     0.013433                       # miss rate for ReadReq accesses
system.cpu.icache.ReadReq_avg_miss_latency::.cpu.inst 49789.158667                       # average ReadReq miss latency
system.cpu.icache.ReadReq_avg_miss_latency::total 49789.158667                       # average ReadReq miss latency
system.cpu.icache.ReadReq_mshr_hits::.cpu.inst          692                       # number of ReadReq MSHR hits
system.cpu.icache.ReadReq_mshr_hits::total          692                       # number of ReadReq MSHR hits
system.cpu.icache.ReadReq_mshr_misses::.cpu.inst         2850                       # number of ReadReq MSHR misses
system.cpu.icache.ReadReq_mshr_misses::total         2850                       # number of ReadReq MSHR misses
system.cpu.icache.ReadReq_mshr_miss_latency::.cpu.inst    143376800                       # number of ReadReq MSHR miss cycles
system.cpu.icache.ReadReq_mshr_miss_latency::total    143376800                       # number of ReadReq MSHR miss cycles
system.cpu.icache.ReadReq_mshr_miss_rate::.cpu.inst     0.010808                       # mshr miss rate for ReadReq accesses
system.cpu.icache.ReadReq_mshr_miss_rate::total     0.010808                       # mshr miss rate for ReadReq accesses
system.cpu.icache.ReadReq_avg_mshr_miss_latency::.cpu.inst 50307.649123                       # average ReadReq mshr miss latency
system.cpu.icache.ReadReq_avg_mshr_miss_latency::total 50307.649123                       # average ReadReq mshr miss latency
system.cpu.icache.prefetcher.pwrStateResidencyTicks::UNDEFINED   1134294800                       # Cumulative time (in ticks) in various power states
system.cpu.icache.tags.pwrStateResidencyTicks::UNDEFINED   1134294800                       # Cumulative time (in ticks) in various power states
system.cpu.icache.tags.tagsinuse           253.550496                       # Cycle average of tags in use
system.cpu.icache.tags.total_refs              238873                       # Total number of references to valid blocks.
system.cpu.icache.tags.sampled_refs              2594                       # Sample count of references to valid blocks.
system.cpu.icache.tags.avg_refs             92.086739                       # Average number of references to valid blocks.
system.cpu.icache.tags.warmup_cycle             66400                       # Cycle when the warmup percentage was hit.
system.cpu.icache.tags.occ_blocks::.cpu.inst   253.550496                       # Average occupied blocks per requestor
system.cpu.icache.tags.occ_percent::.cpu.inst     0.990432                       # Average percentage of cache occupancy
system.cpu.icache.tags.occ_percent::total     0.990432                       # Average percentage of cache occupancy
system.cpu.icache.tags.occ_task_id_blocks::1024          256                       # Occupied blocks per task id
system.cpu.icache.tags.age_task_id_blocks_1024::0           94                       # Occupied blocks per task id
system.cpu.icache.tags.age_task_id_blocks_1024::1          128                       # Occupied blocks per task id
system.cpu.icache.tags.age_task_id_blocks_1024::2           32                       # Occupied blocks per task id
system.cpu.icache.tags.age_task_id_blocks_1024::3            2                       # Occupied blocks per task id
system.cpu.icache.tags.occ_task_id_percent::1024            1                       # Percentage of cache occupancy per task id
system.cpu.icache.tags.tag_accesses            530216                       # Number of tag accesses
system.cpu.icache.tags.data_accesses           530216                       # Number of data accesses
system.cpu.dtb.walker.pwrStateResidencyTicks::UNDEFINED   1134294800                       # Cumulative time (in ticks) in various power states
system.cpu.interrupts.clk_domain.clock           6400                       # Clock period in ticks
system.cpu.itb.walker.pwrStateResidencyTicks::UNDEFINED   1134294800                       # Cumulative time (in ticks) in various power states
system.cpu.dcache.pwrStateResidencyTicks::UNDEFINED   1134294800                       # Cumulative time (in ticks) in various power states
system.cpu.dcache.demand_hits::.cpu.data       718778                       # number of demand (read+write) hits
system.cpu.dcache.demand_hits::total           718778                       # number of demand (read+write) hits
system.cpu.dcache.overall_hits::.cpu.data       718778                       # number of overall hits
system.cpu.dcache.overall_hits::total          718778                       # number of overall hits
system.cpu.dcache.demand_misses::.cpu.data        34575                       # number of demand (read+write) misses
system.cpu.dcache.demand_misses::total          34575                       # number of demand (read+write) misses
system.cpu.dcache.overall_misses::.cpu.data        34575                       # number of overall misses
system.cpu.dcache.overall_misses::total         34575                       # number of overall misses
system.cpu.dcache.demand_miss_latency::.cpu.data   1678142000                       # number of demand (read+write) miss cycles
system.cpu.dcache.demand_miss_latency::total   1678142000                       # number of demand (read+write) miss cycles
system.cpu.dcache.overall_miss_latency::.cpu.data   1678142000                       # number of overall miss cycles
system.cpu.dcache.overall_miss_latency::total   1678142000                       # number of overall miss cycles
system.cpu.dcache.demand_accesses::.cpu.data       753353                       # number of demand (read+write) accesses
system.cpu.dcache.demand_accesses::total       753353                       # number of demand (read+write) accesses
system.cpu.dcache.overall_accesses::.cpu.data       753353                       # number of overall (read+write) accesses
system.cpu.dcache.overall_accesses::total       753353                       # number of overall (read+write) accesses
system.cpu.dcache.demand_miss_rate::.cpu.data     0.045895                       # miss rate for demand accesses
system.cpu.dcache.demand_miss_rate::total     0.045895                       # miss rate for demand accesses
system.cpu.dcache.overall_miss_rate::.cpu.data     0.045895                       # miss rate for overall accesses
system.cpu.dcache.overall_miss_rate::total     0.045895                       # miss rate for overall accesses
system.cpu.dcache.demand_avg_miss_latency::.cpu.data 48536.283442                       # average overall miss latency
system.cpu.dcache.demand_avg_miss_latency::total 48536.283442                       # average overall miss latency
system.cpu.dcache.overall_avg_miss_latency::.cpu.data 48536.283442                       # average overall miss latency
system.cpu.dcache.overall_avg_miss_latency::total 48536.283442                       # average overall miss latency
system.cpu.dcache.blocked_cycles::no_mshrs        29069                       # number of cycles access was blocked
system.cpu.dcache.blocked_cycles::no_targets          138                       # number of cycles access was blocked
system.cpu.dcache.blocked::no_mshrs               735                       # number of cycles access was blocked
system.cpu.dcache.blocked::no_targets               1                       # number of cycles access was blocked
system.cpu.dcache.avg_blocked_cycles::no_mshrs    39.549660                       # average number of cycles each access was blocked
system.cpu.dcache.avg_blocked_cycles::no_targets          138                       # average number of cycles each access was blocked
system.cpu.dcache.unused_prefetches              1742                       # number of HardPF blocks evicted w/o reference
system.cpu.dcache.writebacks::.writebacks         2789                       # number of writebacks
system.cpu.dcache.writebacks::total              2789                       # number of writebacks
system.cpu.dcache.demand_mshr_hits::.cpu.data        22068                       # number of demand (read+write) MSHR hits
system.cpu.dcache.demand_mshr_hits::total        22068                       # number of demand (read+write) MSHR hits
system.cpu.dcache.overall_mshr_hits::.cpu.data        22068                       # number of overall MSHR hits
system.cpu.dcache.overall_mshr_hits::total        22068                       # number of overall MSHR hits
system.cpu.dcache.demand_mshr_misses::.cpu.data        12507                       # number of demand (read+write) MSHR misses
system.cpu.dcache.demand_mshr_misses::total        12507                       # number of demand (read+write) MSHR misses
system.cpu.dcache.overall_mshr_misses::.cpu.data        12507                       # number of overall MSHR misses
system.cpu.dcache.overall_mshr_misses::.cpu.dcache.prefetcher         4368                       # number of overall MSHR misses
system.cpu.dcache.overall_mshr_misses::total        16875                       # number of overall MSHR misses
system.cpu.dcache.demand_mshr_miss_latency::.cpu.data    577258400                       # number of demand (read+write) MSHR miss cycles
system.cpu.dcache.demand_mshr_miss_latency::total    577258400                       # number of demand (read+write) MSHR miss cycles
system.cpu.dcache.overall_mshr_miss_latency::.cpu.data    577258400                       # number of overall MSHR miss cycles
system.cpu.dcache.overall_mshr_miss_latency::.cpu.dcache.prefetcher    249683304                       # number of overall MSHR miss cycles
system.cpu.dcache.overall_mshr_miss_latency::total    826941704                       # number of overall MSHR miss cycles
system.cpu.dcache.demand_mshr_miss_rate::.cpu.data     0.016602                       # mshr miss rate for demand accesses
system.cpu.dcache.demand_mshr_miss_rate::total     0.016602                       # mshr miss rate for demand accesses
system.cpu.dcache.overall_mshr_miss_rate::.cpu.data     0.016602                       # mshr miss rate for overall accesses
system.cpu.dcache.overall_mshr_miss_rate::.cpu.dcache.prefetcher          inf                       # mshr miss rate for overall accesses
system.cpu.dcache.overall_mshr_miss_rate::total     0.022400                       # mshr miss rate for overall accesses
system.cpu.dcache.demand_avg_mshr_miss_latency::.cpu.data 46154.825298                       # average overall mshr miss latency
system.cpu.dcache.demand_avg_mshr_miss_latency::total 46154.825298                       # average overall mshr miss latency
system.cpu.dcache.overall_avg_mshr_miss_latency::.cpu.data 46154.825298                       # average overall mshr miss latency
system.cpu.dcache.overall_avg_mshr_miss_latency::.cpu.dcache.prefetcher 57161.928571                       # average overall mshr miss latency
system.cpu.dcache.overall_avg_mshr_miss_latency::total 49003.952830                       # average overall mshr miss latency
system.cpu.dcache.replacements                  15850                       # number of replacements
system.cpu.dcache.ReadReq_hits::.cpu.data       529847                       # number of ReadReq hits
system.cpu.dcache.ReadReq_hits::total          529847                       # number of ReadReq hits
system.cpu.dcache.ReadReq_misses::.cpu.data        32395                       # number of ReadReq misses
system.cpu.dcache.ReadReq_misses::total         32395                       # number of ReadReq misses
system.cpu.dcache.ReadReq_miss_latency::.cpu.data   1570172800                       # number of ReadReq miss cycles
system.cpu.dcache.ReadReq_miss_latency::total   1570172800                       # number of ReadReq miss cycles
system.cpu.dcache.ReadReq_accesses::.cpu.data       562242                       # number of ReadReq accesses(hits+misses)
system.cpu.dcache.ReadReq_accesses::total       562242                       # number of ReadReq accesses(hits+misses)
system.cpu.dcache.ReadReq_miss_rate::.cpu.data     0.057618                       # miss rate for ReadReq accesses
system.cpu.dcache.ReadReq_miss_rate::total     0.057618                       # miss rate for ReadReq accesses
system.cpu.dcache.ReadReq_avg_miss_latency::.cpu.data 48469.603334                       # average ReadReq miss latency
system.cpu.dcache.ReadReq_avg_miss_latency::total 48469.603334                       # average ReadReq miss latency
system.cpu.dcache.ReadReq_mshr_hits::.cpu.data        22034                       # number of ReadReq MSHR hits
system.cpu.dcache.ReadReq_mshr_hits::total        22034                       # number of ReadReq MSHR hits
system.cpu.dcache.ReadReq_mshr_misses::.cpu.data        10361                       # number of ReadReq MSHR misses
system.cpu.dcache.ReadReq_mshr_misses::total        10361                       # number of ReadReq MSHR misses
system.cpu.dcache.ReadReq_mshr_miss_latency::.cpu.data    472187200                       # number of ReadReq MSHR miss cycles
system.cpu.dcache.ReadReq_mshr_miss_latency::total    472187200                       # number of ReadReq MSHR miss cycles
system.cpu.dcache.ReadReq_mshr_miss_rate::.cpu.data     0.018428                       # mshr miss rate for ReadReq accesses
system.cpu.dcache.ReadReq_mshr_miss_rate::total     0.018428                       # mshr miss rate for ReadReq accesses
system.cpu.dcache.ReadReq_avg_mshr_miss_latency::.cpu.data 45573.516070                       # average ReadReq mshr miss latency
system.cpu.dcache.ReadReq_avg_mshr_miss_latency::total 45573.516070                       # average ReadReq mshr miss latency
system.cpu.dcache.WriteReq_hits::.cpu.data       188931                       # number of WriteReq hits
system.cpu.dcache.WriteReq_hits::total         188931                       # number of WriteReq hits
system.cpu.dcache.WriteReq_misses::.cpu.data         2180                       # number of WriteReq misses
system.cpu.dcache.WriteReq_misses::total         2180                       # number of WriteReq misses
system.cpu.dcache.WriteReq_miss_latency::.cpu.data    107969200                       # number of WriteReq miss cycles
system.cpu.dcache.WriteReq_miss_latency::total    107969200                       # number of WriteReq miss cycles
system.cpu.dcache.WriteReq_accesses::.cpu.data       191111                       # number of WriteReq accesses(hits+misses)
system.cpu.dcache.WriteReq_accesses::total       191111                       # number of WriteReq accesses(hits+misses)
system.cpu.dcache.WriteReq_miss_rate::.cpu.data     0.011407                       # miss rate for WriteReq accesses
system.cpu.dcache.WriteReq_miss_rate::total     0.011407                       # miss rate for WriteReq accesses
system.cpu.dcache.WriteReq_avg_miss_latency::.cpu.data 49527.155963                       # average WriteReq miss latency
system.cpu.dcache.WriteReq_avg_miss_latency::total 49527.155963                       # average WriteReq miss latency
system.cpu.dcache.WriteReq_mshr_hits::.cpu.data           34                       # number of WriteReq MSHR hits
system.cpu.dcache.WriteReq_mshr_hits::total           34                       # number of WriteReq MSHR hits
system.cpu.dcache.WriteReq_mshr_misses::.cpu.data         2146                       # number of WriteReq MSHR misses
[...]
system.l2cache.demand_mshr_misses::.cpu.data          191                       # number of demand (read+write) MSHR misses
system.l2cache.demand_mshr_misses::.cpu.dcache.prefetcher           34                       # number of demand (read+write) MSHR misses
system.l2cache.demand_mshr_misses::total          492                       # number of demand (read+write) MSHR misses
system.l2cache.overall_mshr_misses::.cpu.inst          267                       # number of overall MSHR misses
system.l2cache.overall_mshr_misses::.cpu.data          191                       # number of overall MSHR misses
system.l2cache.overall_mshr_misses::.cpu.dcache.prefetcher           34                       # number of overall MSHR misses
system.l2cache.overall_mshr_misses::total          492                       # number of overall MSHR misses
system.l2cache.demand_mshr_miss_latency::.cpu.inst     15806000                       # number of demand (read+write) MSHR miss cycles
system.l2cache.demand_mshr_miss_latency::.cpu.data     11433200                       # number of demand (read+write) MSHR miss cycles
system.l2cache.demand_mshr_miss_latency::.cpu.dcache.prefetcher      2043565                       # number of demand (read+write) MSHR miss cycles
system.l2cache.demand_mshr_miss_latency::total     29282765                       # number of demand (read+write) MSHR miss cycles
system.l2cache.overall_mshr_miss_latency::.cpu.inst     15806000                       # number of overall MSHR miss cycles
system.l2cache.overall_mshr_miss_latency::.cpu.data     11433200                       # number of overall MSHR miss cycles
system.l2cache.overall_mshr_miss_latency::.cpu.dcache.prefetcher      2043565                       # number of overall MSHR miss cycles
system.l2cache.overall_mshr_miss_latency::total     29282765                       # number of overall MSHR miss cycles
system.l2cache.demand_mshr_miss_rate::.cpu.inst     0.496283                       # mshr miss rate for demand accesses
system.l2cache.demand_mshr_miss_rate::.cpu.data     0.602524                       # mshr miss rate for demand accesses
system.l2cache.demand_mshr_miss_rate::.cpu.dcache.prefetcher     0.829268                       # mshr miss rate for demand accesses
system.l2cache.demand_mshr_miss_rate::total     0.549107                       # mshr miss rate for demand accesses
system.l2cache.overall_mshr_miss_rate::.cpu.inst     0.496283                       # mshr miss rate for overall accesses
system.l2cache.overall_mshr_miss_rate::.cpu.data     0.602524                       # mshr miss rate for overall accesses
system.l2cache.overall_mshr_miss_rate::.cpu.dcache.prefetcher     0.829268                       # mshr miss rate for overall accesses
system.l2cache.overall_mshr_miss_rate::total     0.549107                       # mshr miss rate for overall accesses
system.l2cache.demand_avg_mshr_miss_latency::.cpu.inst 59198.501873                       # average overall mshr miss latency
system.l2cache.demand_avg_mshr_miss_latency::.cpu.data 59859.685864                       # average overall mshr miss latency
system.l2cache.demand_avg_mshr_miss_latency::.cpu.dcache.prefetcher 60104.852941                       # average overall mshr miss latency
system.l2cache.demand_avg_mshr_miss_latency::total 59517.815041                       # average overall mshr miss latency
system.l2cache.overall_avg_mshr_miss_latency::.cpu.inst 59198.501873                       # average overall mshr miss latency
system.l2cache.overall_avg_mshr_miss_latency::.cpu.data 59859.685864                       # average overall mshr miss latency
system.l2cache.overall_avg_mshr_miss_latency::.cpu.dcache.prefetcher 60104.852941                       # average overall mshr miss latency
system.l2cache.overall_avg_mshr_miss_latency::total 59517.815041                       # average overall mshr miss latency
system.l2cache.replacements                       500                       # number of replacements
system.l2cache.WritebackDirty_hits::.writebacks          120                       # number of WritebackDirty hits
system.l2cache.WritebackDirty_hits::total          120                       # number of WritebackDirty hits
system.l2cache.WritebackDirty_accesses::.writebacks          120                       # number of WritebackDirty accesses(hits+misses)
system.l2cache.WritebackDirty_accesses::total          120                       # number of WritebackDirty accesses(hits+misses)
system.l2cache.CleanEvict_mshr_misses::.writebacks           11                       # number of CleanEvict MSHR misses
system.l2cache.CleanEvict_mshr_misses::total           11                       # number of CleanEvict MSHR misses
system.l2cache.CleanEvict_mshr_miss_rate::.writebacks          inf                       # mshr miss rate for CleanEvict accesses
system.l2cache.CleanEvict_mshr_miss_rate::total          inf                       # mshr miss rate for CleanEvict accesses
system.l2cache.ReadExReq_hits::.cpu.data           11                       # number of ReadExReq hits
system.l2cache.ReadExReq_hits::total               11                       # number of ReadExReq hits
system.l2cache.ReadExReq_misses::.cpu.data           69                       # number of ReadExReq misses
system.l2cache.ReadExReq_misses::total             69                       # number of ReadExReq misses
system.l2cache.ReadExReq_miss_latency::.cpu.data      4617600                       # number of ReadExReq miss cycles
system.l2cache.ReadExReq_miss_latency::total      4617600                       # number of ReadExReq miss cycles
system.l2cache.ReadExReq_accesses::.cpu.data           80                       # number of ReadExReq accesses(hits+misses)
system.l2cache.ReadExReq_accesses::total           80                       # number of ReadExReq accesses(hits+misses)
system.l2cache.ReadExReq_miss_rate::.cpu.data     0.862500                       # miss rate for ReadExReq accesses
system.l2cache.ReadExReq_miss_rate::total     0.862500                       # miss rate for ReadExReq accesses
system.l2cache.ReadExReq_avg_miss_latency::.cpu.data 66921.739130                       # average ReadExReq miss latency
system.l2cache.ReadExReq_avg_miss_latency::total 66921.739130                       # average ReadExReq miss latency
system.l2cache.ReadExReq_mshr_misses::.cpu.data           69                       # number of ReadExReq MSHR misses
system.l2cache.ReadExReq_mshr_misses::total           69                       # number of ReadExReq MSHR misses
system.l2cache.ReadExReq_mshr_miss_latency::.cpu.data      4065600                       # number of ReadExReq MSHR miss cycles
system.l2cache.ReadExReq_mshr_miss_latency::total      4065600                       # number of ReadExReq MSHR miss cycles
system.l2cache.ReadExReq_mshr_miss_rate::.cpu.data     0.862500                       # mshr miss rate for ReadExReq accesses
system.l2cache.ReadExReq_mshr_miss_rate::total     0.862500                       # mshr miss rate for ReadExReq accesses
system.l2cache.ReadExReq_avg_mshr_miss_latency::.cpu.data 58921.739130                       # average ReadExReq mshr miss latency
system.l2cache.ReadExReq_avg_mshr_miss_latency::total 58921.739130                       # average ReadExReq mshr miss latency
system.l2cache.ReadSharedReq_hits::.cpu.inst          271                       # number of ReadSharedReq hits
system.l2cache.ReadSharedReq_hits::.cpu.data          115                       # number of ReadSharedReq hits
system.l2cache.ReadSharedReq_hits::.cpu.dcache.prefetcher            7                       # number of ReadSharedReq hits
system.l2cache.ReadSharedReq_hits::total          393                       # number of ReadSharedReq hits
system.l2cache.ReadSharedReq_misses::.cpu.inst          267                       # number of ReadSharedReq misses
system.l2cache.ReadSharedReq_misses::.cpu.data          122                       # number of ReadSharedReq misses
system.l2cache.ReadSharedReq_misses::.cpu.dcache.prefetcher           34                       # number of ReadSharedReq misses
system.l2cache.ReadSharedReq_misses::total          423                       # number of ReadSharedReq misses
system.l2cache.ReadSharedReq_miss_latency::.cpu.inst     17934000                       # number of ReadSharedReq miss cycles
system.l2cache.ReadSharedReq_miss_latency::.cpu.data      8343600                       # number of ReadSharedReq miss cycles
system.l2cache.ReadSharedReq_miss_latency::.cpu.dcache.prefetcher      2315565                       # number of ReadSharedReq miss cycles
system.l2cache.ReadSharedReq_miss_latency::total     28593165                       # number of ReadSharedReq miss cycles
system.l2cache.ReadSharedReq_accesses::.cpu.inst          538                       # number of ReadSharedReq accesses(hits+misses)
system.l2cache.ReadSharedReq_accesses::.cpu.data          237                       # number of ReadSharedReq accesses(hits+misses)
system.l2cache.ReadSharedReq_accesses::.cpu.dcache.prefetcher           41                       # number of ReadSharedReq accesses(hits+misses)
system.l2cache.ReadSharedReq_accesses::total          816                       # number of ReadSharedReq accesses(hits+misses)
system.l2cache.ReadSharedReq_miss_rate::.cpu.inst     0.496283                       # miss rate for ReadSharedReq accesses
system.l2cache.ReadSharedReq_miss_rate::.cpu.data     0.514768                       # miss rate for ReadSharedReq accesses
system.l2cache.ReadSharedReq_miss_rate::.cpu.dcache.prefetcher     0.829268                       # miss rate for ReadSharedReq accesses
system.l2cache.ReadSharedReq_miss_rate::total     0.518382                       # miss rate for ReadSharedReq accesses
system.l2cache.ReadSharedReq_avg_miss_latency::.cpu.inst 67168.539326                       # average ReadSharedReq miss latency
system.l2cache.ReadSharedReq_avg_miss_latency::.cpu.data 68390.163934                       # average ReadSharedReq miss latency
system.l2cache.ReadSharedReq_avg_miss_latency::.cpu.dcache.prefetcher 68104.852941                       # average ReadSharedReq miss latency
system.l2cache.ReadSharedReq_avg_miss_latency::total 67596.134752                       # average ReadSharedReq miss latency
system.l2cache.ReadSharedReq_mshr_misses::.cpu.inst          267                       # number of ReadSharedReq MSHR misses
system.l2cache.ReadSharedReq_mshr_misses::.cpu.data          122                       # number of ReadSharedReq MSHR misses
system.l2cache.ReadSharedReq_mshr_misses::.cpu.dcache.prefetcher           34                       # number of ReadSharedReq MSHR misses
system.l2cache.ReadSharedReq_mshr_misses::total          423                       # number of ReadSharedReq MSHR misses
system.l2cache.ReadSharedReq_mshr_miss_latency::.cpu.inst     15806000                       # number of ReadSharedReq MSHR miss cycles
system.l2cache.ReadSharedReq_mshr_miss_latency::.cpu.data      7367600                       # number of ReadSharedReq MSHR miss cycles
system.l2cache.ReadSharedReq_mshr_miss_latency::.cpu.dcache.prefetcher      2043565                       # number of ReadSharedReq MSHR miss cycles
system.l2cache.ReadSharedReq_mshr_miss_latency::total     25217165                       # number of ReadSharedReq MSHR miss cycles
system.l2cache.ReadSharedReq_mshr_miss_rate::.cpu.inst     0.496283                       # mshr miss rate for ReadSharedReq accesses
system.l2cache.ReadSharedReq_mshr_miss_rate::.cpu.data     0.514768                       # mshr miss rate for ReadSharedReq accesses
system.l2cache.ReadSharedReq_mshr_miss_rate::.cpu.dcache.prefetcher     0.829268                       # mshr miss rate for ReadSharedReq accesses
system.l2cache.ReadSharedReq_mshr_miss_rate::total     0.518382                       # mshr miss rate for ReadSharedReq accesses
system.l2cache.ReadSharedReq_avg_mshr_miss_latency::.cpu.inst 59198.501873                       # average ReadSharedReq mshr miss latency
system.l2cache.ReadSharedReq_avg_mshr_miss_latency::.cpu.data 60390.163934                       # average ReadSharedReq mshr miss latency
system.l2cache.ReadSharedReq_avg_mshr_miss_latency::.cpu.dcache.prefetcher 60104.852941                       # average ReadSharedReq mshr miss latency
system.l2cache.ReadSharedReq_avg_mshr_miss_latency::total 59615.047281                       # average ReadSharedReq mshr miss latency
system.l2cache.prefetcher.pwrStateResidencyTicks::UNDEFINED     74831200                       # Cumulative time (in ticks) in various power states
system.l2cache.tags.pwrStateResidencyTicks::UNDEFINED     74831200                       # Cumulative time (in ticks) in various power states
system.l2cache.tags.tagsinuse                    4096                       # Cycle average of tags in use
system.l2cache.tags.total_refs                  13947                       # Total number of references to valid blocks.
system.l2cache.tags.sampled_refs                 4596                       # Sample count of references to valid blocks.
system.l2cache.tags.avg_refs                 3.034595                       # Average number of references to valid blocks.
system.l2cache.tags.warmup_cycle                    0                       # Cycle when the warmup percentage was hit.
system.l2cache.tags.occ_blocks::.writebacks    38.665680                       # Average occupied blocks per requestor
system.l2cache.tags.occ_blocks::.cpu.inst  1116.184363                       # Average occupied blocks per requestor
system.l2cache.tags.occ_blocks::.cpu.data  1865.569895                       # Average occupied blocks per requestor
system.l2cache.tags.occ_blocks::.cpu.dcache.prefetcher   944.149006                       # Average occupied blocks per requestor
system.l2cache.tags.occ_blocks::.l2cache.prefetcher   131.431055                       # Average occupied blocks per requestor
system.l2cache.tags.occ_percent::.writebacks     0.009440                       # Average percentage of cache occupancy
system.l2cache.tags.occ_percent::.cpu.inst     0.272506                       # Average percentage of cache occupancy
system.l2cache.tags.occ_percent::.cpu.data     0.455461                       # Average percentage of cache occupancy
system.l2cache.tags.occ_percent::.cpu.dcache.prefetcher     0.230505                       # Average percentage of cache occupancy
system.l2cache.tags.occ_percent::.l2cache.prefetcher     0.032088                       # Average percentage of cache occupancy
system.l2cache.tags.occ_percent::total              1                       # Average percentage of cache occupancy
system.l2cache.tags.occ_task_id_blocks::1022          987                       # Occupied blocks per task id
system.l2cache.tags.occ_task_id_blocks::1024         3109                       # Occupied blocks per task id
system.l2cache.tags.age_task_id_blocks_1022::0            5                       # Occupied blocks per task id
system.l2cache.tags.age_task_id_blocks_1022::1           33                       # Occupied blocks per task id
system.l2cache.tags.age_task_id_blocks_1022::2          940                       # Occupied blocks per task id
system.l2cache.tags.age_task_id_blocks_1022::3            9                       # Occupied blocks per task id
system.l2cache.tags.age_task_id_blocks_1024::0          169                       # Occupied blocks per task id
system.l2cache.tags.age_task_id_blocks_1024::1          293                       # Occupied blocks per task id
system.l2cache.tags.age_task_id_blocks_1024::2         2518                       # Occupied blocks per task id
system.l2cache.tags.age_task_id_blocks_1024::3          129                       # Occupied blocks per task id
system.l2cache.tags.occ_task_id_percent::1022     0.240967                       # Percentage of cache occupancy per task id
system.l2cache.tags.occ_task_id_percent::1024     0.759033                       # Percentage of cache occupancy per task id
system.l2cache.tags.tag_accesses                14820                       # Number of tag accesses
system.l2cache.tags.data_accesses               14820                       # Number of data accesses
system.mem_ctrl.pwrStateResidencyTicks::UNDEFINED     74831200                       # Cumulative time (in ticks) in various power states
system.mem_ctrl.bytes_read::.cpu.inst           17024                       # Number of bytes read from this memory
system.mem_ctrl.bytes_read::.cpu.data           12224                       # Number of bytes read from this memory
system.mem_ctrl.bytes_read::.cpu.dcache.prefetcher         2176                       # Number of bytes read from this memory
system.mem_ctrl.bytes_read::total               31424                       # Number of bytes read from this memory
system.mem_ctrl.bytes_inst_read::.cpu.inst        17024                       # Number of instructions bytes read from this memory
system.mem_ctrl.bytes_inst_read::total          17024                       # Number of instructions bytes read from this memory
system.mem_ctrl.bytes_written::.writebacks         2112                       # Number of bytes written to this memory
system.mem_ctrl.bytes_written::total             2112                       # Number of bytes written to this memory
system.mem_ctrl.num_reads::.cpu.inst              266                       # Number of read requests responded to by this memory
system.mem_ctrl.num_reads::.cpu.data              191                       # Number of read requests responded to by this memory
system.mem_ctrl.num_reads::.cpu.dcache.prefetcher           34                       # Number of read requests responded to by this memory
system.mem_ctrl.num_reads::total                  491                       # Number of read requests responded to by this memory
system.mem_ctrl.num_writes::.writebacks            33                       # Number of write requests responded to by this memory
system.mem_ctrl.num_writes::total                  33                       # Number of write requests responded to by this memory
system.mem_ctrl.bw_read::.cpu.inst          227498690                       # Total read bandwidth from this memory (bytes/s)
system.mem_ctrl.bw_read::.cpu.data          163354323                       # Total read bandwidth from this memory (bytes/s)
system.mem_ctrl.bw_read::.cpu.dcache.prefetcher     29078780                       # Total read bandwidth from this memory (bytes/s)
system.mem_ctrl.bw_read::total              419931793                       # Total read bandwidth from this memory (bytes/s)
system.mem_ctrl.bw_inst_read::.cpu.inst     227498690                       # Instruction read bandwidth from this memory (bytes/s)
system.mem_ctrl.bw_inst_read::total         227498690                       # Instruction read bandwidth from this memory (bytes/s)
system.mem_ctrl.bw_write::.writebacks        28223522                       # Write bandwidth from this memory (bytes/s)
system.mem_ctrl.bw_write::total              28223522                       # Write bandwidth from this memory (bytes/s)
system.mem_ctrl.bw_total::.writebacks        28223522                       # Total bandwidth to/from this memory (bytes/s)
system.mem_ctrl.bw_total::.cpu.inst         227498690                       # Total bandwidth to/from this memory (bytes/s)
system.mem_ctrl.bw_total::.cpu.data         163354323                       # Total bandwidth to/from this memory (bytes/s)
system.mem_ctrl.bw_total::.cpu.dcache.prefetcher     29078780                       # Total bandwidth to/from this memory (bytes/s)
system.mem_ctrl.bw_total::total             448155315                       # Total bandwidth to/from this memory (bytes/s)

---------- End Simulation Statistics   ----------
