
---------- Begin Simulation Statistics ----------
final_tick                                 1087134800                       # Number of ticks from beginning of simulation (restored from checkpoints and never reset)
host_inst_rate                                 165059                       # Simulator instruction rate (inst/s)
host_mem_usage                                4402768                       # Number of bytes of host memory used
host_op_rate                                   287457                       # Simulator op (including micro ops) rate (op/s)
host_seconds                                    12.30                       # Real time elapsed on the host
host_tick_rate                               88404161                       # Simulator tick rate (ticks/s)
sim_freq                                 1000000000000                       # Frequency of simulated ticks
sim_insts                                     2029772                       # Number of instructions simulated
sim_ops                                       3534948                       # Number of ops (including micro ops) simulated
sim_seconds                                  0.001087                       # Number of seconds simulated
sim_ticks                                  1087134800                       # Number of ticks simulated
system.cpu.branchPred.BTBCorrect                    0                       # Number of correct BTB predictions (this stat may not work properly.
system.cpu.branchPred.BTBHitPct              0.000000                       # BTB Hit Percentage
system.cpu.branchPred.BTBHits                       0                       # Number of BTB hits
system.cpu.branchPred.BTBLookups               434041                       # Number of BTB lookups
system.cpu.branchPred.RASInCorrect                  8                       # Number of incorrect RAS predictions.
system.cpu.branchPred.condIncorrect             24423                       # Number of conditional branches incorrect
system.cpu.branchPred.condPredicted            462049                       # Number of conditional branches predicted
system.cpu.branchPred.indirectHits             238619                       # Number of indirect target hits.
system.cpu.branchPred.indirectLookups          434041                       # Number of indirect predictor lookups.
system.cpu.branchPred.indirectMisses           195422                       # Number of indirect misses.
system.cpu.branchPred.lookups                  487231                       # Number of BP lookups
system.cpu.branchPred.usedRAS                   10829                       # Number of times the RAS was used to get a target.
system.cpu.branchPredindirectMispredicted        12017                       # Number of mispredicted indirect branches.
system.cpu.cc_regfile_reads                   2344284                       # number of cc regfile reads
system.cpu.cc_regfile_writes                  1907510                       # number of cc regfile writes
system.cpu.commit.amos                              0                       # Number of atomic instructions committed
system.cpu.commit.branchMispredicts             24526                       # The number of times a branch was mispredicted
system.cpu.commit.branches                     341308                       # Number of branches committed
system.cpu.commit.bw_lim_events                587290                       # number cycles where commit BW limit reached
system.cpu.commit.commitNonSpecStalls             741                       # The number of times commit has been forced to stall to communicate backwards
system.cpu.commit.commitSquashedInsts          895497                       # The number of squashed insts skipped by commit
system.cpu.commit.committedInsts              2029772                       # Number of instructions committed
system.cpu.commit.committedOps                3534948                       # Number of ops (including micro ops) committed
system.cpu.commit.committed_per_cycle::samples      2325471                       # Number of insts commited each cycle
system.cpu.commit.committed_per_cycle::mean     1.520100                       # Number of insts commited each cycle
system.cpu.commit.committed_per_cycle::stdev     1.722991                       # Number of insts commited each cycle
system.cpu.commit.committed_per_cycle::underflows            0      0.00%      0.00% # Number of insts commited each cycle
system.cpu.commit.committed_per_cycle::0      1172938     50.44%     50.44% # Number of insts commited each cycle
system.cpu.commit.committed_per_cycle::1       171484      7.37%     57.81% # Number of insts commited each cycle
system.cpu.commit.committed_per_cycle::2       166973      7.18%     64.99% # Number of insts commited each cycle
system.cpu.commit.committed_per_cycle::3       226786      9.75%     74.75% # Number of insts commited each cycle
system.cpu.commit.committed_per_cycle::4       587290     25.25%    100.00% # Number of insts commited each cycle
system.cpu.commit.committed_per_cycle::overflows            0      0.00%    100.00% # Number of insts commited each cycle
system.cpu.commit.committed_per_cycle::min_value            0                       # Number of insts commited each cycle
system.cpu.commit.committed_per_cycle::max_value            4                       # Number of insts commited each cycle
system.cpu.commit.committed_per_cycle::total      2325471                       # Number of insts commited each cycle
system.cpu.commit.fp_insts                      73625                       # Number of committed floating point instructions.
system.cpu.commit.function_calls                 9089                       # Number of function calls committed.
system.cpu.commit.int_insts                   3478883                       # Number of committed integer instructions.
system.cpu.commit.loads                        486708                       # Number of loads committed
system.cpu.commit.membars                           1                       # Number of memory barriers committed
system.cpu.commit.op_class_0::No_OpClass        21552      0.61%      0.61% # Class of committed instruction
system.cpu.commit.op_class_0::IntAlu          2777584     78.57%     79.18% # Class of committed instruction
system.cpu.commit.op_class_0::IntMult              27      0.00%     79.19% # Class of committed instruction
system.cpu.commit.op_class_0::IntDiv            38597      1.09%     80.28% # Class of committed instruction
system.cpu.commit.op_class_0::FloatAdd           2867      0.08%     80.36% # Class of committed instruction
system.cpu.commit.op_class_0::FloatCmp              0      0.00%     80.36% # Class of committed instruction
system.cpu.commit.op_class_0::FloatCvt           1216      0.03%     80.39% # Class of committed instruction
system.cpu.commit.op_class_0::FloatMult             0      0.00%     80.39% # Class of committed instruction
system.cpu.commit.op_class_0::FloatMultAcc            0      0.00%     80.39% # Class of committed instruction
system.cpu.commit.op_class_0::FloatDiv              0      0.00%     80.39% # Class of committed instruction
system.cpu.commit.op_class_0::FloatMisc             0      0.00%     80.39% # Class of committed instruction
system.cpu.commit.op_class_0::FloatSqrt             0      0.00%     80.39% # Class of committed instruction
system.cpu.commit.op_class_0::SimdAdd            6236      0.18%     80.57% # Class of committed instruction
system.cpu.commit.op_class_0::SimdAddAcc            0      0.00%     80.57% # Class of committed instruction
system.cpu.commit.op_class_0::SimdAlu           11246      0.32%     80.89% # Class of committed instruction
system.cpu.commit.op_class_0::SimdCmp               0      0.00%     80.89% # Class of committed instruction
system.cpu.commit.op_class_0::SimdCvt           12154      0.34%     81.23% # Class of committed instruction
system.cpu.commit.op_class_0::SimdMisc           6531      0.18%     81.42% # Class of committed instruction
system.cpu.commit.op_class_0::SimdMult              0      0.00%     81.42% # Class of committed instruction
system.cpu.commit.op_class_0::SimdMultAcc            0      0.00%     81.42% # Class of committed instruction
system.cpu.commit.op_class_0::SimdShift          1199      0.03%     81.45% # Class of committed instruction
system.cpu.commit.op_class_0::SimdShiftAcc            0      0.00%     81.45% # Class of committed instruction
system.cpu.commit.op_class_0::SimdDiv               0      0.00%     81.45% # Class of committed instruction
system.cpu.commit.op_class_0::SimdSqrt              0      0.00%     81.45% # Class of committed instruction
system.cpu.commit.op_class_0::SimdFloatAdd            0      0.00%     81.45% # Class of committed instruction
system.cpu.commit.op_class_0::SimdFloatAlu            0      0.00%     81.45% # Class of committed instruction
system.cpu.commit.op_class_0::SimdFloatCmp            0      0.00%     81.45% # Class of committed instruction
system.cpu.commit.op_class_0::SimdFloatCvt            0      0.00%     81.45% # Class of committed instruction
system.cpu.commit.op_class_0::SimdFloatDiv            0      0.00%     81.45% # Class of committed instruction
system.cpu.commit.op_class_0::SimdFloatMisc            0      0.00%     81.45% # Class of committed instruction
system.cpu.commit.op_class_0::SimdFloatMult            0      0.00%     81.45% # Class of committed instruction
system.cpu.commit.op_class_0::SimdFloatMultAcc            0      0.00%     81.45% # Class of committed instruction
system.cpu.commit.op_class_0::SimdFloatSqrt            0      0.00%     81.45% # Class of committed instruction
system.cpu.commit.op_class_0::SimdReduceAdd            0      0.00%     81.45% # Class of committed instruction
system.cpu.commit.op_class_0::SimdReduceAlu            0      0.00%     81.45% # Class of committed instruction
system.cpu.commit.op_class_0::SimdReduceCmp            0      0.00%     81.45% # Class of committed instruction
system.cpu.commit.op_class_0::SimdFloatReduceAdd            0      0.00%     81.45% # Class of committed instruction
system.cpu.commit.op_class_0::SimdFloatReduceCmp            0      0.00%     81.45% # Class of committed instruction
system.cpu.commit.op_class_0::SimdAes               0      0.00%     81.45% # Class of committed instruction
system.cpu.commit.op_class_0::SimdAesMix            0      0.00%     81.45% # Class of committed instruction
system.cpu.commit.op_class_0::SimdSha1Hash            0      0.00%     81.45% # Class of committed instruction
system.cpu.commit.op_class_0::SimdSha1Hash2            0      0.00%     81.45% # Class of committed instruction
system.cpu.commit.op_class_0::SimdSha256Hash            0      0.00%     81.45% # Class of committed instruction
system.cpu.commit.op_class_0::SimdSha256Hash2            0      0.00%     81.45% # Class of committed instruction
system.cpu.commit.op_class_0::SimdShaSigma2            0      0.00%     81.45% # Class of committed instruction
system.cpu.commit.op_class_0::SimdShaSigma3            0      0.00%     81.45% # Class of committed instruction
system.cpu.commit.op_class_0::SimdPredAlu            0      0.00%     81.45% # Class of committed instruction
system.cpu.commit.op_class_0::MemRead          467496     13.22%     94.67% # Class of committed instruction
system.cpu.commit.op_class_0::MemWrite         156926      4.44%     99.11% # Class of committed instruction
system.cpu.commit.op_class_0::FloatMemRead        19212      0.54%     99.66% # Class of committed instruction
system.cpu.commit.op_class_0::FloatMemWrite        12105      0.34%    100.00% # Class of committed instruction
system.cpu.commit.op_class_0::IprAccess             0      0.00%    100.00% # Class of committed instruction
system.cpu.commit.op_class_0::InstPrefetch            0      0.00%    100.00% # Class of committed instruction
system.cpu.commit.op_class_0::total           3534948                       # Class of committed instruction
system.cpu.commit.refs                         655739                       # Number of memory references committed
system.cpu.commit.swp_count                         0                       # Number of s/w prefetches committed
system.cpu.commit.vec_insts                         0                       # Number of committed Vector instructions.
system.cpu.committedInsts                     2029772                       # Number of Instructions Simulated
system.cpu.committedOps                       3534948                       # Number of Ops (including micro ops) Simulated
system.cpu.cpi                               1.338987                       # CPI: Cycles Per Instruction
system.cpu.cpi_total                         1.338987                       # CPI: Total CPI of All Threads
system.cpu.dcache.prefetcher.num_hwpf_issued         8041                       # number of hwpf issued
system.cpu.dcache.prefetcher.pfBufferHit        35438                       # number of redundant prefetches already in prefetch queue
system.cpu.dcache.prefetcher.pfIdentified        50790                       # number of prefetch candidates identified
system.cpu.dcache.prefetcher.pfInCache              0                       # number of redundant prefetches already in cache/mshr dropped
system.cpu.dcache.prefetcher.pfRemovedFull            0                       # number of prefetches dropped due to prefetch queue size
system.cpu.dcache.prefetcher.pfSpanPage          4610                       # number of prefetches that crossed the page
system.cpu.decode.BlockedCycles               1041608                       # Number of cycles decode is blocked
system.cpu.decode.DecodedInsts                4648109                       # Number of instructions handled by decode
system.cpu.decode.IdleCycles                   287557                       # Number of cycles decode is idle
system.cpu.decode.RunCycles                   1128860                       # Number of cycles decode is running
system.cpu.decode.SquashCycles                  24589                       # Number of cycles decode is squashing
system.cpu.decode.UnblockCycles                 87113                       # Number of cycles decode is unblocking
system.cpu.dtb.rdAccesses                      570930                       # TLB accesses on read requests
system.cpu.dtb.rdMisses                          2053                       # TLB misses on read requests
system.cpu.dtb.wrAccesses                      189033                       # TLB accesses on write requests
system.cpu.dtb.wrMisses                           166                       # TLB misses on write requests
system.cpu.fetch.Branches                      487231                       # Number of branches that fetch encountered
system.cpu.fetch.CacheLines                    237580                       # Number of cache lines fetched
system.cpu.fetch.Cycles                       2220875                       # Number of cycles fetch has run and was not squashing or blocked
system.cpu.fetch.IcacheSquashes                  4503                       # Number of outstanding Icache misses that were squashed
system.cpu.fetch.IcacheWaitRetryStallCycles           17                       # Number of stall cycles due to full MSHR
system.cpu.fetch.Insts                        2803819                       # Number of instructions fetch has processed
system.cpu.fetch.MiscStallCycles                  112                       # Number of cycles fetch has spent waiting on interrupts, or bad addresses, or out of MSHRs
system.cpu.fetch.PendingQuiesceStallCycles            8                       # Number of stall cycles due to pending quiesce instructions
system.cpu.fetch.PendingTrapStallCycles           733                       # Number of stall cycles due to pending traps
system.cpu.fetch.SquashCycles                   49178                       # Number of cycles fetch has spent squashing
system.cpu.fetch.branchRate                  0.179272                       # Number of branch fetches per cycle
system.cpu.fetch.icacheStallCycles             323393                       # Number of cycles fetch is stalled on an Icache miss
system.cpu.fetch.predictedBranches             249448                       # Number of branches that fetch has predicted taken
system.cpu.fetch.rate                        1.031636                       # Number of inst fetches per cycle
system.cpu.fetch.rateDist::samples            2569727                       # Number of instructions fetched each cycle (Total)
system.cpu.fetch.rateDist::mean              1.917071                       # Number of instructions fetched each cycle (Total)
system.cpu.fetch.rateDist::stdev             1.931606                       # Number of instructions fetched each cycle (Total)
system.cpu.fetch.rateDist::underflows               0      0.00%      0.00% # Number of instructions fetched each cycle (Total)
system.cpu.fetch.rateDist::0                  1236081     48.10%     48.10% # Number of instructions fetched each cycle (Total)
system.cpu.fetch.rateDist::1                    72617      2.83%     50.93% # Number of instructions fetched each cycle (Total)
system.cpu.fetch.rateDist::2                    57837      2.25%     53.18% # Number of instructions fetched each cycle (Total)
system.cpu.fetch.rateDist::3                    74710      2.91%     56.09% # Number of instructions fetched each cycle (Total)
system.cpu.fetch.rateDist::4                  1128482     43.91%    100.00% # Number of instructions fetched each cycle (Total)
system.cpu.fetch.rateDist::overflows                0      0.00%    100.00% # Number of instructions fetched each cycle (Total)
system.cpu.fetch.rateDist::min_value                0                       # Number of instructions fetched each cycle (Total)
system.cpu.fetch.rateDist::max_value                4                       # Number of instructions fetched each cycle (Total)
system.cpu.fetch.rateDist::total              2569727                       # Number of instructions fetched each cycle (Total)
system.cpu.fp_regfile_reads                    119915                       # number of floating regfile reads
system.cpu.fp_regfile_writes                    66147                       # number of floating regfile writes
system.cpu.fuPool.fu_ticks_busy::IntALU(0)    214114400                       # Total ticks fu was busy
system.cpu.fuPool.fu_ticks_busy::IntALU(1)    214114400                       # Total ticks fu was busy
system.cpu.fuPool.fu_ticks_busy::IntALU(2)    214114400                       # Total ticks fu was busy
system.cpu.fuPool.fu_ticks_busy::IntALU(3)    214114000                       # Total ticks fu was busy
system.cpu.fuPool.fu_ticks_busy::IntALU(4)    214114000                       # Total ticks fu was busy
system.cpu.fuPool.fu_ticks_busy::IntALU(5)    214114000                       # Total ticks fu was busy
system.cpu.fuPool.fu_ticks_busy::IntMultDiv(0)      8564800                       # Total ticks fu was busy
system.cpu.fuPool.fu_ticks_busy::IntMultDiv(1)      8564400                       # Total ticks fu was busy
system.cpu.fuPool.fu_ticks_busy::FP_ALU(0)       571200                       # Total ticks fu was busy
system.cpu.fuPool.fu_ticks_busy::FP_ALU(1)       570800                       # Total ticks fu was busy
system.cpu.fuPool.fu_ticks_busy::FP_ALU(2)       570400                       # Total ticks fu was busy
system.cpu.fuPool.fu_ticks_busy::FP_ALU(3)       570400                       # Total ticks fu was busy
system.cpu.fuPool.fu_ticks_busy::FP_MultDiv(0)            0                       # Total ticks fu was busy
system.cpu.fuPool.fu_ticks_busy::FP_MultDiv(1)            0                       # Total ticks fu was busy
system.cpu.fuPool.fu_ticks_busy::SIMD_Unit(0)      4560800                       # Total ticks fu was busy
system.cpu.fuPool.fu_ticks_busy::SIMD_Unit(1)      4522000                       # Total ticks fu was busy
system.cpu.fuPool.fu_ticks_busy::SIMD_Unit(2)      4422000                       # Total ticks fu was busy
system.cpu.fuPool.fu_ticks_busy::SIMD_Unit(3)      4466400                       # Total ticks fu was busy
system.cpu.fuPool.fu_ticks_busy::PredALU(0)            0                       # Total ticks fu was busy
system.cpu.fuPool.fu_ticks_busy::RdWrPort(0)     77478400                       # Total ticks fu was busy
system.cpu.fuPool.fu_ticks_busy::RdWrPort(1)     77445600                       # Total ticks fu was busy
system.cpu.fuPool.fu_ticks_busy::RdWrPort(2)     77461600                       # Total ticks fu was busy
system.cpu.fuPool.fu_ticks_busy::RdWrPort(3)     77456800                       # Total ticks fu was busy
system.cpu.fuPool.fu_ticks_busy::IprPort(0)            0                       # Total ticks fu was busy
system.cpu.fuPool.fu_ticks_busy::total     1631910800                       # Total ticks fu was busy
system.cpu.icache.prefetcher.num_hwpf_issued            0                       # number of hwpf issued
system.cpu.icache.prefetcher.pfBufferHit            0                       # number of redundant prefetches already in prefetch queue
system.cpu.icache.prefetcher.pfIdentified            0                       # number of prefetch candidates identified
system.cpu.icache.prefetcher.pfInCache              0                       # number of redundant prefetches already in cache/mshr dropped
system.cpu.icache.prefetcher.pfRemovedFull            0                       # number of prefetches dropped due to prefetch queue size
system.cpu.icache.prefetcher.pfSpanPage             0                       # number of prefetches that crossed the page
system.cpu.idleCycles                          148111                       # Total number of cycles that the CPU has spent unscheduled due to idling
system.cpu.iew.branchMispredicts                28869                       # Number of branch mispredicts detected at execute
system.cpu.iew.exec_branches                   372166                       # Number of branches executed
system.cpu.iew.exec_nop                             0                       # number of nop insts executed
system.cpu.iew.exec_rate                     1.498584                       # Inst execution rate
system.cpu.iew.exec_refs                       761744                       # number of memory reference insts executed
system.cpu.iew.exec_stores                     189025                       # Number of stores executed
system.cpu.iew.exec_swp                             0                       # number of swp insts executed
system.cpu.iew.iewBlockCycles                  694054                       # Number of cycles IEW is blocking
system.cpu.iew.iewDispLoadInsts                603093                       # Number of dispatched load instructions
system.cpu.iew.iewDispNonSpecInsts                924                       # Number of dispatched non-speculative instructions
system.cpu.iew.iewDispSquashedInsts               543                       # Number of squashed instructions skipped by dispatch
system.cpu.iew.iewDispStoreInsts               199462                       # Number of dispatched store instructions
system.cpu.iew.iewDispatchedInsts             4430398                       # Number of instructions dispatched to IQ
system.cpu.iew.iewExecLoadInsts                572719                       # Number of load instructions executed
system.cpu.iew.iewExecSquashedInsts             34459                       # Number of squashed instructions skipped in execute
system.cpu.iew.iewExecutedInsts               4072909                       # Number of executed instructions
system.cpu.iew.iewIQFullEvents                   3288                       # Number of times the IQ has become full, causing a stall
system.cpu.iew.iewIdleCycles                        0                       # Number of cycles IEW is idle
system.cpu.iew.iewLSQFullEvents                 10666                       # Number of times the LSQ has become full, causing a stall
system.cpu.iew.iewSquashCycles                  24589                       # Number of cycles IEW is squashing
system.cpu.iew.iewUnblockCycles                 16907                       # Number of cycles IEW is unblocking
system.cpu.iew.lsq.thread0.blockedLoads             0                       # Number of blocked loads due to partial load-store forwarding
system.cpu.iew.lsq.thread0.cacheBlocked           636                       # Number of times an access to memory failed due to the cache being blocked
system.cpu.iew.lsq.thread0.forwLoads            39472                       # Number of loads that had data forwarded from stores
system.cpu.iew.lsq.thread0.ignoredResponses          266                       # Number of memory responses ignored because the instruction is squashed
system.cpu.iew.lsq.thread0.invAddrLoads             0                       # Number of loads ignored due to an invalid address
system.cpu.iew.lsq.thread0.invAddrSwpfs             0                       # Number of software prefetches ignored due to an invalid address
system.cpu.iew.lsq.thread0.memOrderViolation           76                       # Number of memory ordering violations
system.cpu.iew.lsq.thread0.rescheduledLoads            0                       # Number of loads that were rescheduled
system.cpu.iew.lsq.thread0.squashedLoads       116383                       # Number of loads squashed
system.cpu.iew.lsq.thread0.squashedStores        30430                       # Number of stores squashed
system.cpu.iew.memOrderViolationEvents             76                       # Number of memory order violations
system.cpu.iew.predictedNotTakenIncorrect        20398                       # Number of branches that were predicted not taken incorrectly
system.cpu.iew.predictedTakenIncorrect           8471                       # Number of branches that were predicted taken incorrectly
system.cpu.iew.wb_consumers                   5707590                       # num instructions consuming a value
system.cpu.iew.wb_count                       4050409                       # cumulative count of insts written-back
system.cpu.iew.wb_fanout                     0.566954                       # average fanout of values written-back
system.cpu.iew.wb_producers                   3235939                       # num instructions producing a value
system.cpu.iew.wb_rate                       1.490306                       # insts written-back per cycle
system.cpu.iew.wb_sent                        4057426                       # cumulative count of insts sent to commit
system.cpu.int_regfile_reads                  6309347                       # number of integer regfile reads
system.cpu.int_regfile_writes                 3500485                       # number of integer regfile writes
system.cpu.ipc                               0.746833                       # IPC: Instructions Per Cycle
system.cpu.ipc_total                         0.746833                       # IPC: Total IPC of All Threads
system.cpu.iq.FU_type_0::No_OpClass             27591      0.67%      0.67% # Type of FU issued
system.cpu.iq.FU_type_0::IntAlu               3211714     78.19%     78.87% # Type of FU issued
system.cpu.iq.FU_type_0::IntMult                   47      0.00%     78.87% # Type of FU issued
system.cpu.iq.FU_type_0::IntDiv                 42776      1.04%     79.91% # Type of FU issued
system.cpu.iq.FU_type_0::FloatAdd                4457      0.11%     80.02% # Type of FU issued
system.cpu.iq.FU_type_0::FloatCmp                   0      0.00%     80.02% # Type of FU issued
system.cpu.iq.FU_type_0::FloatCvt                1250      0.03%     80.05% # Type of FU issued
system.cpu.iq.FU_type_0::FloatMult                  0      0.00%     80.05% # Type of FU issued
system.cpu.iq.FU_type_0::FloatMultAcc               0      0.00%     80.05% # Type of FU issued
system.cpu.iq.FU_type_0::FloatDiv                   0      0.00%     80.05% # Type of FU issued
system.cpu.iq.FU_type_0::FloatMisc                  0      0.00%     80.05% # Type of FU issued
system.cpu.iq.FU_type_0::FloatSqrt                  0      0.00%     80.05% # Type of FU issued
system.cpu.iq.FU_type_0::SimdAdd                 6814      0.17%     80.21% # Type of FU issued
system.cpu.iq.FU_type_0::SimdAddAcc                 0      0.00%     80.21% # Type of FU issued
system.cpu.iq.FU_type_0::SimdAlu                14951      0.36%     80.58% # Type of FU issued
system.cpu.iq.FU_type_0::SimdCmp                    0      0.00%     80.58% # Type of FU issued
system.cpu.iq.FU_type_0::SimdCvt                13805      0.34%     80.91% # Type of FU issued
system.cpu.iq.FU_type_0::SimdMisc                7064      0.17%     81.09% # Type of FU issued
system.cpu.iq.FU_type_0::SimdMult                   0      0.00%     81.09% # Type of FU issued
system.cpu.iq.FU_type_0::SimdMultAcc                0      0.00%     81.09% # Type of FU issued
system.cpu.iq.FU_type_0::SimdShift               2294      0.06%     81.14% # Type of FU issued
system.cpu.iq.FU_type_0::SimdShiftAcc               0      0.00%     81.14% # Type of FU issued
system.cpu.iq.FU_type_0::SimdDiv                    0      0.00%     81.14% # Type of FU issued
system.cpu.iq.FU_type_0::SimdSqrt                   0      0.00%     81.14% # Type of FU issued
system.cpu.iq.FU_type_0::SimdFloatAdd               0      0.00%     81.14% # Type of FU issued
system.cpu.iq.FU_type_0::SimdFloatAlu               0      0.00%     81.14% # Type of FU issued
system.cpu.iq.FU_type_0::SimdFloatCmp               0      0.00%     81.14% # Type of FU issued
system.cpu.iq.FU_type_0::SimdFloatCvt               0      0.00%     81.14% # Type of FU issued
system.cpu.iq.FU_type_0::SimdFloatDiv               0      0.00%     81.14% # Type of FU issued
system.cpu.iq.FU_type_0::SimdFloatMisc              0      0.00%     81.14% # Type of FU issued
system.cpu.iq.FU_type_0::SimdFloatMult              0      0.00%     81.14% # Type of FU issued
system.cpu.iq.FU_type_0::SimdFloatMultAcc            0      0.00%     81.14% # Type of FU issued
system.cpu.iq.FU_type_0::SimdFloatSqrt              0      0.00%     81.14% # Type of FU issued
system.cpu.iq.FU_type_0::SimdReduceAdd              0      0.00%     81.14% # Type of FU issued
system.cpu.iq.FU_type_0::SimdReduceAlu              0      0.00%     81.14% # Type of FU issued
system.cpu.iq.FU_type_0::SimdReduceCmp              0      0.00%     81.14% # Type of FU issued
system.cpu.iq.FU_type_0::SimdFloatReduceAdd            0      0.00%     81.14% # Type of FU issued
system.cpu.iq.FU_type_0::SimdFloatReduceCmp            0      0.00%     81.14% # Type of FU issued
system.cpu.iq.FU_type_0::SimdAes                    0      0.00%     81.14% # Type of FU issued
system.cpu.iq.FU_type_0::SimdAesMix                 0      0.00%     81.14% # Type of FU issued
system.cpu.iq.FU_type_0::SimdSha1Hash               0      0.00%     81.14% # Type of FU issued
system.cpu.iq.FU_type_0::SimdSha1Hash2              0      0.00%     81.14% # Type of FU issued
system.cpu.iq.FU_type_0::SimdSha256Hash             0      0.00%     81.14% # Type of FU issued
system.cpu.iq.FU_type_0::SimdSha256Hash2            0      0.00%     81.14% # Type of FU issued
system.cpu.iq.FU_type_0::SimdShaSigma2              0      0.00%     81.14% # Type of FU issued
system.cpu.iq.FU_type_0::SimdShaSigma3              0      0.00%     81.14% # Type of FU issued
system.cpu.iq.FU_type_0::SimdPredAlu                0      0.00%     81.14% # Type of FU issued
system.cpu.iq.FU_type_0::MemRead               557740     13.58%     94.72% # Type of FU issued
system.cpu.iq.FU_type_0::MemWrite              178242      4.34%     99.06% # Type of FU issued
system.cpu.iq.FU_type_0::FloatMemRead           25214      0.61%     99.67% # Type of FU issued
system.cpu.iq.FU_type_0::FloatMemWrite          13412      0.33%    100.00% # Type of FU issued
system.cpu.iq.FU_type_0::IprAccess                  0      0.00%    100.00% # Type of FU issued
system.cpu.iq.FU_type_0::InstPrefetch               0      0.00%    100.00% # Type of FU issued
system.cpu.iq.FU_type_0::total                4107371                       # Type of FU issued
system.cpu.iq.fp_alu_accesses                   90308                       # Number of floating point alu accesses
system.cpu.iq.fp_inst_queue_reads              181953                       # Number of floating instruction queue reads
system.cpu.iq.fp_inst_queue_wakeup_accesses        86840                       # Number of floating instruction queue wakeup accesses
system.cpu.iq.fp_inst_queue_writes             132281                       # Number of floating instruction queue writes
system.cpu.iq.fu_busy_cnt                           0                       # FU busy when requested
system.cpu.iq.fu_busy_rate                          0                       # FU busy rate (busy events/executed inst)
system.cpu.iq.fu_full::No_OpClass                   0                       # attempts to use FU when none available
system.cpu.iq.fu_full::IntAlu                       0                       # attempts to use FU when none available
system.cpu.iq.fu_full::IntMult                      0                       # attempts to use FU when none available
system.cpu.iq.fu_full::IntDiv                       0                       # attempts to use FU when none available
system.cpu.iq.fu_full::FloatAdd                     0                       # attempts to use FU when none available
system.cpu.iq.fu_full::FloatCmp                     0                       # attempts to use FU when none available
system.cpu.iq.fu_full::FloatCvt                     0                       # attempts to use FU when none available
system.cpu.iq.fu_full::FloatMult                    0                       # attempts to use FU when none available
system.cpu.iq.fu_full::FloatMultAcc                 0                       # attempts to use FU when none available
system.cpu.iq.fu_full::FloatDiv                     0                       # attempts to use FU when none available
system.cpu.iq.fu_full::FloatMisc                    0                       # attempts to use FU when none available
system.cpu.iq.fu_full::FloatSqrt                    0                       # attempts to use FU when none available
system.cpu.iq.fu_full::SimdAdd                      0                       # attempts to use FU when none available
system.cpu.iq.fu_full::SimdAddAcc                   0                       # attempts to use FU when none available
system.cpu.iq.fu_full::SimdAlu                      0                       # attempts to use FU when none available
system.cpu.iq.fu_full::SimdCmp                      0                       # attempts to use FU when none available
system.cpu.iq.fu_full::SimdCvt                      0                       # attempts to use FU when none available
system.cpu.iq.fu_full::SimdMisc                     0                       # attempts to use FU when none available
system.cpu.iq.fu_full::SimdMult                     0                       # attempts to use FU when none available
system.cpu.iq.fu_full::SimdMultAcc                  0                       # attempts to use FU when none available
system.cpu.iq.fu_full::SimdShift                    0                       # attempts to use FU when none available
system.cpu.iq.fu_full::SimdShiftAcc                 0                       # attempts to use FU when none available
system.cpu.iq.fu_full::SimdDiv                      0                       # attempts to use FU when none available
system.cpu.iq.fu_full::SimdSqrt                     0                       # attempts to use FU when none available
system.cpu.iq.fu_full::SimdFloatAdd                 0                       # attempts to use FU when none available
system.cpu.iq.fu_full::SimdFloatAlu                 0                       # attempts to use FU when none available
system.cpu.iq.fu_full::SimdFloatCmp                 0                       # attempts to use FU when none available
system.cpu.iq.fu_full::SimdFloatCvt                 0                       # attempts to use FU when none available
system.cpu.iq.fu_full::SimdFloatDiv                 0                       # attempts to use FU when none available
system.cpu.iq.fu_full::SimdFloatMisc                0                       # attempts to use FU when none available
system.cpu.iq.fu_full::SimdFloatMult                0                       # attempts to use FU when none available
system.cpu.iq.fu_full::SimdFloatMultAcc             0                       # attempts to use FU when none available
system.cpu.iq.fu_full::SimdFloatSqrt                0                       # attempts to use FU when none available
system.cpu.iq.fu_full::SimdReduceAdd                0                       # attempts to use FU when none available
system.cpu.iq.fu_full::SimdReduceAlu                0                       # attempts to use FU when none available
system.cpu.iq.fu_full::SimdReduceCmp                0                       # attempts to use FU when none available
system.cpu.iq.fu_full::SimdFloatReduceAdd            0                       # attempts to use FU when none available
system.cpu.iq.fu_full::SimdFloatReduceCmp            0                       # attempts to use FU when none available
system.cpu.iq.fu_full::SimdAes                      0                       # attempts to use FU when none available
system.cpu.iq.fu_full::SimdAesMix                   0                       # attempts to use FU when none available
system.cpu.iq.fu_full::SimdSha1Hash                 0                       # attempts to use FU when none available
system.cpu.iq.fu_full::SimdSha1Hash2                0                       # attempts to use FU when none available
system.cpu.iq.fu_full::SimdSha256Hash               0                       # attempts to use FU when none available
system.cpu.iq.fu_full::SimdSha256Hash2              0                       # attempts to use FU when none available
system.cpu.iq.fu_full::SimdShaSigma2                0                       # attempts to use FU when none available
system.cpu.iq.fu_full::SimdShaSigma3                0                       # attempts to use FU when none available
system.cpu.iq.fu_full::SimdPredAlu                  0                       # attempts to use FU when none available
system.cpu.iq.fu_full::MemRead                      0                       # attempts to use FU when none available
system.cpu.iq.fu_full::MemWrite                     0                       # attempts to use FU when none available
system.cpu.iq.fu_full::FloatMemRead                 0                       # attempts to use FU when none available
system.cpu.iq.fu_full::FloatMemWrite                0                       # attempts to use FU when none available
system.cpu.iq.fu_full::IprAccess                    0                       # attempts to use FU when none available
system.cpu.iq.fu_full::InstPrefetch                 0                       # attempts to use FU when none available
system.cpu.iq.int_alu_accesses                3989472                       # Number of integer alu accesses
system.cpu.iq.int_inst_queue_reads           10620801                       # Number of integer instruction queue reads
system.cpu.iq.int_inst_queue_wakeup_accesses      3963569                       # Number of integer instruction queue wakeup accesses
system.cpu.iq.int_inst_queue_writes           5193630                       # Number of integer instruction queue writes
system.cpu.iq.iqInstsAdded                    4429300                       # Number of instructions added to the IQ (excludes non-spec)
system.cpu.iq.iqInstsIssued                   4107371                       # Number of instructions issued
system.cpu.iq.iqNonSpecInstsAdded                1098                       # Number of non-speculative instructions added to the IQ
system.cpu.iq.iqSquashedInstsExamined          895439                       # Number of squashed instructions iterated over during squash; mainly for profiling
system.cpu.iq.iqSquashedInstsIssued             18288                       # Number of squashed instructions issued
system.cpu.iq.iqSquashedNonSpecRemoved            357                       # Number of squashed non-spec instructions that were removed
system.cpu.iq.iqSquashedOperandsExamined      1337822                       # Number of squashed operands that are examined and possibly removed from graph
system.cpu.iq.issued_per_cycle::samples       2569727                       # Number of insts issued each cycle
system.cpu.iq.issued_per_cycle::mean         1.598369                       # Number of insts issued each cycle
system.cpu.iq.issued_per_cycle::stdev        1.671069                       # Number of insts issued each cycle
system.cpu.iq.issued_per_cycle::underflows            0      0.00%      0.00% # Number of insts issued each cycle
system.cpu.iq.issued_per_cycle::0             1185050     46.12%     46.12% # Number of insts issued each cycle
system.cpu.iq.issued_per_cycle::1              169789      6.61%     52.72% # Number of insts issued each cycle
system.cpu.iq.issued_per_cycle::2              293386     11.42%     64.14% # Number of insts issued each cycle
system.cpu.iq.issued_per_cycle::3              335198     13.04%     77.18% # Number of insts issued each cycle
system.cpu.iq.issued_per_cycle::4              586304     22.82%    100.00% # Number of insts issued each cycle
system.cpu.iq.issued_per_cycle::overflows            0      0.00%    100.00% # Number of insts issued each cycle
system.cpu.iq.issued_per_cycle::min_value            0                       # Number of insts issued each cycle
system.cpu.iq.issued_per_cycle::max_value            4                       # Number of insts issued each cycle
system.cpu.iq.issued_per_cycle::total         2569727                       # Number of insts issued each cycle
system.cpu.iq.rate                           1.511264                       # Inst issue rate
system.cpu.iq.vec_alu_accesses                      0                       # Number of vector alu accesses
system.cpu.iq.vec_inst_queue_reads                  0                       # Number of vector instruction queue reads
system.cpu.iq.vec_inst_queue_wakeup_accesses            0                       # Number of vector instruction queue wakeup accesses
system.cpu.iq.vec_inst_queue_writes                 0                       # Number of vector instruction queue writes
system.cpu.itb.rdAccesses                           0                       # TLB accesses on read requests
system.cpu.itb.rdMisses                             0                       # TLB misses on read requests
system.cpu.itb.wrAccesses                      237702                       # TLB accesses on write requests
system.cpu.itb.wrMisses                           359                       # TLB misses on write requests
system.cpu.memDep0.conflictingLoads             10459                       # Number of conflicting loads.
system.cpu.memDep0.conflictingStores             5270                       # Number of conflicting stores.
system.cpu.memDep0.insertedLoads               603093                       # Number of loads inserted to the mem dependence unit.
system.cpu.memDep0.insertedStores              199462                       # Number of stores inserted to the mem dependence unit.
system.cpu.misc_regfile_reads                 1539112                       # number of misc regfile reads
system.cpu.misc_regfile_writes                    684                       # number of misc regfile writes
system.cpu.numCycles                          2717838                       # number of cpu cycles simulated
system.cpu.numWorkItemsCompleted                    0                       # number of work items this cpu completed
system.cpu.numWorkItemsStarted                      0                       # number of work items this cpu started
system.cpu.process.numSyscalls                     56                       # Number of system calls
system.cpu.rename.BlockCycles                  841247                       # Number of cycles rename is blocking
system.cpu.rename.CommittedMaps               4842030                       # Number of HB maps that are committed
system.cpu.rename.FullRegisterEvents               44                       # Number of times there has been no free registers
system.cpu.rename.IQFullEvents                  43696                       # Number of times rename has blocked due to IQ full
system.cpu.rename.IdleCycles                   336862                       # Number of cycles rename is idle
system.cpu.rename.LQFullEvents                  13339                       # Number of times rename has blocked due to LQ full
system.cpu.rename.ROBFullEvents                  4220                       # Number of times rename has blocked due to ROB full
system.cpu.rename.RenameLookups              11968525                       # Number of register rename lookups that rename has made
system.cpu.rename.RenamedInsts                4572487                       # Number of instructions processed by rename
system.cpu.rename.RenamedOperands             6253263                       # Number of destination operands rename has renamed
system.cpu.rename.RunCycles                   1158247                       # Number of cycles rename is running
system.cpu.rename.SQFullEvents                  95065                       # Number of times rename has blocked due to SQ full
system.cpu.rename.SquashCycles                  24589                       # Number of cycles rename is squashing
system.cpu.rename.UnblockCycles                189084                       # Number of cycles rename is unblocking
system.cpu.rename.UndoneMaps                  1411210                       # Number of HB maps that are undone due to squashing
system.cpu.rename.fp_rename_lookups            156056                       # Number of floating rename lookups
system.cpu.rename.int_rename_lookups          7268103                       # Number of integer rename lookups
system.cpu.rename.serializeStallCycles          19698                       # count of cycles rename stalled for serializing inst
system.cpu.rename.serializingInsts                872                       # count of serializing insts renamed
system.cpu.rename.skidInsts                    201155                       # count of insts added to the skid buffer
system.cpu.rename.tempSerializingInsts            921                       # count of temporary serializing insts renamed
system.cpu.rob.rob_reads                      6168626                       # The number of ROB reads
system.cpu.rob.rob_writes                     9106095                       # The number of ROB writes
system.cpu.timesIdled                            1476                       # Number of times that the entire CPU went into an idle state and unscheduled itself
system.l2bus.snoop_filter.hit_multi_requests           10                       # Number of requests hitting in the snoop filter with multiple (>1) holders of the requested data.
system.l2bus.snoop_filter.hit_multi_snoops            0                       # Number of snoops hitting in the snoop filter with multiple (>1) holders of the requested data.
system.l2bus.snoop_filter.hit_single_requests        18559                       # Number of requests hitting in the snoop filter with a single holder of the requested data.
system.l2bus.snoop_filter.hit_single_snoops          420                       # Number of snoops hitting in the snoop filter with a single holder of the requested data.
system.l2bus.snoop_filter.tot_requests          38398                       # Total number of requests made to the snoop filter.
system.l2bus.snoop_filter.tot_snoops              420                       # Total number of snoops made to the snoop filter.
system.l2cache.prefetcher.num_hwpf_issued          658                       # number of hwpf issued
system.l2cache.prefetcher.pfBufferHit               0                       # number of redundant prefetches already in prefetch queue
system.l2cache.prefetcher.pfIdentified            658                       # number of prefetch candidates identified
system.l2cache.prefetcher.pfInCache                 0                       # number of redundant prefetches already in cache/mshr dropped
system.l2cache.prefetcher.pfRemovedFull             0                       # number of prefetches dropped due to prefetch queue size
system.l2cache.prefetcher.pfSpanPage              122                       # number of prefetches that crossed the page
system.membus.snoop_filter.hit_multi_requests            0                       # Number of requests hitting in the snoop filter with multiple (>1) holders of the requested data.
system.membus.snoop_filter.hit_multi_snoops            0                       # Number of snoops hitting in the snoop filter with multiple (>1) holders of the requested data.
system.membus.snoop_filter.hit_single_requests         9500                       # Number of requests hitting in the snoop filter with a single holder of the requested data.
system.membus.snoop_filter.hit_single_snoops            0                       # Number of snoops hitting in the snoop filter with a single holder of the requested data.
system.membus.snoop_filter.tot_requests         23119                       # Total number of requests made to the snoop filter.
system.membus.snoop_filter.tot_snoops               0                       # Total number of snoops made to the snoop filter.
system.membus.pwrStateResidencyTicks::UNDEFINED   1087134800                       # Cumulative time (in ticks) in various power states
system.membus.trans_dist::ReadResp              12197                       # Transaction distribution
system.membus.trans_dist::WritebackDirty         1327                       # Transaction distribution
system.membus.trans_dist::CleanEvict             8173                       # Transaction distribution
system.membus.trans_dist::ReadExReq              1422                       # Transaction distribution
system.membus.trans_dist::ReadExResp             1422                       # Transaction distribution
system.membus.trans_dist::ReadSharedReq         12197                       # Transaction distribution
system.membus.pkt_count_system.l2cache.mem_side::system.mem_ctrl.port        36738                       # Packet count per connected master and slave (bytes)
system.membus.pkt_count_system.l2cache.mem_side::total        36738                       # Packet count per connected master and slave (bytes)
system.membus.pkt_count::total                  36738                       # Packet count per connected master and slave (bytes)
system.membus.pkt_size_system.l2cache.mem_side::system.mem_ctrl.port       956544                       # Cumulative packet size per connected master and slave (bytes)
system.membus.pkt_size_system.l2cache.mem_side::total       956544                       # Cumulative packet size per connected master and slave (bytes)
system.membus.pkt_size::total                  956544                       # Cumulative packet size per connected master and slave (bytes)
system.membus.snoops                                0                       # Total snoops (count)
system.membus.snoopTraffic                          0                       # Total snoop traffic (bytes)
system.membus.snoop_fanout::samples             13619                       # Request fanout histogram
system.membus.snoop_fanout::mean                    0                       # Request fanout histogram
system.membus.snoop_fanout::stdev                   0                       # Request fanout histogram
system.membus.snoop_fanout::underflows              0      0.00%      0.00% # Request fanout histogram
system.membus.snoop_fanout::0                   13619    100.00%    100.00% # Request fanout histogram
system.membus.snoop_fanout::1                       0      0.00%    100.00% # Request fanout histogram
system.membus.snoop_fanout::overflows               0      0.00%    100.00% # Request fanout histogram
system.membus.snoop_fanout::min_value               0                       # Request fanout histogram
system.membus.snoop_fanout::max_value               0                       # Request fanout histogram
system.membus.snoop_fanout::total               13619                       # Request fanout histogram
system.membus.reqLayer2.occupancy            11393469                       # Layer occupancy (ticks)
system.membus.reqLayer2.utilization               1.0                       # Layer utilization (%)
system.membus.respLayer0.occupancy           29560131                       # Layer occupancy (ticks)
system.membus.respLayer0.utilization              2.7                       # Layer utilization (%)
system.l2bus.pwrStateResidencyTicks::UNDEFINED   1087134800                       # Cumulative time (in ticks) in various power states
system.l2bus.trans_dist::ReadResp               17692                       # Transaction distribution
system.l2bus.trans_dist::WritebackDirty          4171                       # Transaction distribution
system.l2bus.trans_dist::CleanEvict             23972                       # Transaction distribution
system.l2bus.trans_dist::HardPFReq                936                       # Transaction distribution
system.l2bus.trans_dist::ReadExReq               2147                       # Transaction distribution
system.l2bus.trans_dist::ReadExResp              2147                       # Transaction distribution
system.l2bus.trans_dist::ReadSharedReq          17692                       # Transaction distribution
system.l2bus.pkt_count_system.cpu.icache.mem_side::system.l2cache.cpu_side         7691                       # Packet count per connected master and slave (bytes)
system.l2bus.pkt_count_system.cpu.dcache.mem_side::system.l2cache.cpu_side        50543                       # Packet count per connected master and slave (bytes)
system.l2bus.pkt_count::total                   58234                       # Packet count per connected master and slave (bytes)
system.l2bus.pkt_size_system.cpu.icache.mem_side::system.l2cache.cpu_side       169408                       # Cumulative packet size per connected master and slave (bytes)
system.l2bus.pkt_size_system.cpu.dcache.mem_side::system.l2cache.cpu_side      1282112                       # Cumulative packet size per connected master and slave (bytes)
system.l2bus.pkt_size::total                  1451520                       # Cumulative packet size per connected master and slave (bytes)
system.l2bus.snoops                             10523                       # Total snoops (count)
system.l2bus.snoopTraffic                       85120                       # Total snoop traffic (bytes)
system.l2bus.snoop_fanout::samples              30359                       # Request fanout histogram
system.l2bus.snoop_fanout::mean              0.014164                       # Request fanout histogram
system.l2bus.snoop_fanout::stdev             0.118168                       # Request fanout histogram
system.l2bus.snoop_fanout::underflows               0      0.00%      0.00% # Request fanout histogram
system.l2bus.snoop_fanout::0                    29929     98.58%     98.58% # Request fanout histogram
system.l2bus.snoop_fanout::1                      430      1.42%    100.00% # Request fanout histogram
system.l2bus.snoop_fanout::2                        0      0.00%    100.00% # Request fanout histogram
system.l2bus.snoop_fanout::overflows                0      0.00%    100.00% # Request fanout histogram
system.l2bus.snoop_fanout::min_value                0                       # Request fanout histogram
system.l2bus.snoop_fanout::max_value                1                       # Request fanout histogram
system.l2bus.snoop_fanout::total                30359                       # Request fanout histogram
system.l2bus.respLayer1.occupancy            20627997                       # Layer occupancy (ticks)
system.l2bus.respLayer1.utilization               1.9                       # Layer utilization (%)
system.l2bus.reqLayer0.occupancy             19067446                       # Layer occupancy (ticks)
system.l2bus.reqLayer0.utilization                1.8                       # Layer utilization (%)
system.l2bus.respLayer0.occupancy             3180399                       # Layer occupancy (ticks)
system.l2bus.respLayer0.utilization               0.3                       # Layer utilization (%)
system.clk_domain.clock                           400                       # Clock period in ticks
system.clk_domain.voltage_domain.voltage            1                       # Voltage in Volts
system.cpu.pwrStateResidencyTicks::ON      1087134800                       # Cumulative time (in ticks) in various power states
system.cpu.icache.pwrStateResidencyTicks::UNDEFINED   1087134800                       # Cumulative time (in ticks) in various power states
system.cpu.icache.demand_hits::.cpu.inst       234280                       # number of demand (read+write) hits
system.cpu.icache.demand_hits::total           234280                       # number of demand (read+write) hits
system.cpu.icache.overall_hits::.cpu.inst       234280                       # number of overall hits
system.cpu.icache.overall_hits::total          234280                       # number of overall hits
system.cpu.icache.demand_misses::.cpu.inst         3300                       # number of demand (read+write) misses
system.cpu.icache.demand_misses::total           3300                       # number of demand (read+write) misses
system.cpu.icache.overall_misses::.cpu.inst         3300                       # number of overall misses
system.cpu.icache.overall_misses::total          3300                       # number of overall misses
system.cpu.icache.demand_miss_latency::.cpu.inst    164007599                       # number of demand (read+write) miss cycles
system.cpu.icache.demand_miss_latency::total    164007599                       # number of demand (read+write) miss cycles
system.cpu.icache.overall_miss_latency::.cpu.inst    164007599                       # number of overall miss cycles
system.cpu.icache.overall_miss_latency::total    164007599                       # number of overall miss cycles
system.cpu.icache.demand_accesses::.cpu.inst       237580                       # number of demand (read+write) accesses
system.cpu.icache.demand_accesses::total       237580                       # number of demand (read+write) accesses
system.cpu.icache.overall_accesses::.cpu.inst       237580                       # number of overall (read+write) accesses
system.cpu.icache.overall_accesses::total       237580                       # number of overall (read+write) accesses
system.cpu.icache.demand_miss_rate::.cpu.inst     0.013890                       # miss rate for demand accesses
system.cpu.icache.demand_miss_rate::total     0.013890                       # miss rate for demand accesses
system.cpu.icache.overall_miss_rate::.cpu.inst     0.013890                       # miss rate for overall accesses
system.cpu.icache.overall_miss_rate::total     0.013890                       # miss rate for overall accesses
system.cpu.icache.demand_avg_miss_latency::.cpu.inst 49699.272424                       # average overall miss latency
system.cpu.icache.demand_avg_miss_latency::total 49699.272424                       # average overall miss latency
system.cpu.icache.overall_avg_miss_latency::.cpu.inst 49699.272424                       # average overall miss latency
system.cpu.icache.overall_avg_miss_latency::total 49699.272424                       # average overall miss latency
system.cpu.icache.blocked_cycles::no_mshrs           58                       # number of cycles access was blocked
system.cpu.icache.blocked_cycles::no_targets            0                       # number of cycles access was blocked
system.cpu.icache.blocked::no_mshrs                 3                       # number of cycles access was blocked
system.cpu.icache.blocked::no_targets               0                       # number of cycles access was blocked
system.cpu.icache.avg_blocked_cycles::no_mshrs    19.333333                       # average number of cycles each access was blocked
system.cpu.icache.avg_blocked_cycles::no_targets          nan                       # average number of cycles each access was blocked
system.cpu.icache.demand_mshr_hits::.cpu.inst          650                       # number of demand (read+write) MSHR hits
system.cpu.icache.demand_mshr_hits::total          650                       # number of demand (read+write) MSHR hits
system.cpu.icache.overall_mshr_hits::.cpu.inst          650                       # number of overall MSHR hits
system.cpu.icache.overall_mshr_hits::total          650                       # number of overall MSHR hits
system.cpu.icache.demand_mshr_misses::.cpu.inst         2650                       # number of demand (read+write) MSHR misses
system.cpu.icache.demand_mshr_misses::total         2650                       # number of demand (read+write) MSHR misses
system.cpu.icache.overall_mshr_misses::.cpu.inst         2650                       # number of overall MSHR misses
system.cpu.icache.overall_mshr_misses::total         2650                       # number of overall MSHR misses
system.cpu.icache.demand_mshr_miss_latency::.cpu.inst    132326399                       # number of demand (read+write) MSHR miss cycles
system.cpu.icache.demand_mshr_miss_latency::total    132326399                       # number of demand (read+write) MSHR miss cycles
system.cpu.icache.overall_mshr_miss_latency::.cpu.inst    132326399                       # number of overall MSHR miss cycles
system.cpu.icache.overall_mshr_miss_latency::total    132326399                       # number of overall MSHR miss cycles
system.cpu.icache.demand_mshr_miss_rate::.cpu.inst     0.011154                       # mshr miss rate for demand accesses
system.cpu.icache.demand_mshr_miss_rate::total     0.011154                       # mshr miss rate for demand accesses
system.cpu.icache.overall_mshr_miss_rate::.cpu.inst     0.011154                       # mshr miss rate for overall accesses
system.cpu.icache.overall_mshr_miss_rate::total     0.011154                       # mshr miss rate for overall accesses
system.cpu.icache.demand_avg_mshr_miss_latency::.cpu.inst 49934.490189                       # average overall mshr miss latency
system.cpu.icache.demand_avg_mshr_miss_latency::total 49934.490189                       # average overall mshr miss latency
system.cpu.icache.overall_avg_mshr_miss_latency::.cpu.inst 49934.490189                       # average overall mshr miss latency
system.cpu.icache.overall_avg_mshr_miss_latency::total 49934.490189                       # average overall mshr miss latency
system.cpu.icache.replacements                   2394                       # number of replacements
system.cpu.icache.ReadReq_hits::.cpu.inst       234280                       # number of ReadReq hits
system.cpu.icache.ReadReq_hits::total          234280                       # number of ReadReq hits
system.cpu.icache.ReadReq_misses::.cpu.inst         3300                       # number of ReadReq misses
system.cpu.icache.ReadReq_misses::total          3300                       # number of ReadReq misses
system.cpu.icache.ReadReq_miss_latency::.cpu.inst    164007599                       # number of ReadReq miss cycles
system.cpu.icache.ReadReq_miss_latency::total    164007599                       # number of ReadReq miss cycles
system.cpu.icache.ReadReq_accesses::.cpu.inst       237580                       # number of ReadReq accesses(hits+misses)
system.cpu.icache.ReadReq_accesses::total       237580                       # number of ReadReq accesses(hits+misses)
system.cpu.icache.ReadReq_miss_rate::.cpu.inst     0.013890                       # miss rate for ReadReq accesses
system.cpu.icache.ReadReq_miss_rate::total     0.013890                       # miss rate for ReadReq accesses
system.cpu.icache.ReadReq_avg_miss_latency::.cpu.inst 49699.272424                       # average ReadReq miss latency
system.cpu.icache.ReadReq_avg_miss_latency::total 49699.272424                       # average ReadReq miss latency
system.cpu.icache.ReadReq_mshr_hits::.cpu.inst          650                       # number of ReadReq MSHR hits
system.cpu.icache.ReadReq_mshr_hits::total          650                       # number of ReadReq MSHR hits
system.cpu.icache.ReadReq_mshr_misses::.cpu.inst         2650                       # number of ReadReq MSHR misses
system.cpu.icache.ReadReq_mshr_misses::total         2650                       # number of ReadReq MSHR misses
system.cpu.icache.ReadReq_mshr_miss_latency::.cpu.inst    132326399                       # number of ReadReq MSHR miss cycles
system.cpu.icache.ReadReq_mshr_miss_latency::total    132326399                       # number of ReadReq MSHR miss cycles
system.cpu.icache.ReadReq_mshr_miss_rate::.cpu.inst     0.011154                       # mshr miss rate for ReadReq accesses
system.cpu.icache.ReadReq_mshr_miss_rate::total     0.011154                       # mshr miss rate for ReadReq accesses
system.cpu.icache.ReadReq_avg_mshr_miss_latency::.cpu.inst 49934.490189                       # average ReadReq mshr miss latency
system.cpu.icache.ReadReq_avg_mshr_miss_latency::total 49934.490189                       # average ReadReq mshr miss latency
system.cpu.icache.prefetcher.pwrStateResidencyTicks::UNDEFINED   1087134800                       # Cumulative time (in ticks) in various power states
system.cpu.icache.tags.pwrStateResidencyTicks::UNDEFINED   1087134800                       # Cumulative time (in ticks) in various power states
system.cpu.icache.tags.tagsinuse           253.472556                       # Cycle average of tags in use
system.cpu.icache.tags.total_refs              209489                       # Total number of references to valid blocks.
system.cpu.icache.tags.sampled_refs              2394                       # Sample count of references to valid blocks.
system.cpu.icache.tags.avg_refs             87.505848                       # Average number of references to valid blocks.
system.cpu.icache.tags.warmup_cycle             66400                       # Cycle when the warmup percentage was hit.
system.cpu.icache.tags.occ_blocks::.cpu.inst   253.472556                       # Average occupied blocks per requestor
system.cpu.icache.tags.occ_percent::.cpu.inst     0.990127                       # Average percentage of cache occupancy
system.cpu.icache.tags.occ_percent::total     0.990127                       # Average percentage of cache occupancy
system.cpu.icache.tags.occ_task_id_blocks::1024          256                       # Occupied blocks per task id
system.cpu.icache.tags.age_task_id_blocks_1024::0           63                       # Occupied blocks per task id
system.cpu.icache.tags.age_task_id_blocks_1024::1          169                       # Occupied blocks per task id
system.cpu.icache.tags.age_task_id_blocks_1024::2           23                       # Occupied blocks per task id
system.cpu.icache.tags.age_task_id_blocks_1024::3            1                       # Occupied blocks per task id
system.cpu.icache.tags.occ_task_id_percent::1024            1                       # Percentage of cache occupancy per task id
system.cpu.icache.tags.tag_accesses            477810                       # Number of tag accesses
system.cpu.icache.tags.data_accesses           477810                       # Number of data accesses
system.cpu.dtb.walker.pwrStateResidencyTicks::UNDEFINED   1087134800                       # Cumulative time (in ticks) in various power states
system.cpu.interrupts.clk_domain.clock           6400                       # Clock period in ticks
system.cpu.itb.walker.pwrStateResidencyTicks::UNDEFINED   1087134800                       # Cumulative time (in ticks) in various power states
system.cpu.dcache.pwrStateResidencyTicks::UNDEFINED   1087134800                       # Cumulative time (in ticks) in various power states
system.cpu.dcache.demand_hits::.cpu.data       663614                       # number of demand (read+write) hits
system.cpu.dcache.demand_hits::total           663614                       # number of demand (read+write) hits
system.cpu.dcache.overall_hits::.cpu.data       663614                       # number of overall hits
system.cpu.dcache.overall_hits::total          663614                       # number of overall hits
system.cpu.dcache.demand_misses::.cpu.data        35771                       # number of demand (read+write) misses
system.cpu.dcache.demand_misses::total          35771                       # number of demand (read+write) misses
system.cpu.dcache.overall_misses::.cpu.data        35771                       # number of overall misses
system.cpu.dcache.overall_misses::total         35771                       # number of overall misses
system.cpu.dcache.demand_miss_latency::.cpu.data   1735426397                       # number of demand (read+write) miss cycles
system.cpu.dcache.demand_miss_latency::total   1735426397                       # number of demand (read+write) miss cycles
system.cpu.dcache.overall_miss_latency::.cpu.data   1735426397                       # number of overall miss cycles
system.cpu.dcache.overall_miss_latency::total   1735426397                       # number of overall miss cycles
system.cpu.dcache.demand_accesses::.cpu.data       699385                       # number of demand (read+write) accesses
system.cpu.dcache.demand_accesses::total       699385                       # number of demand (read+write) accesses
system.cpu.dcache.overall_accesses::.cpu.data       699385                       # number of overall (read+write) accesses
system.cpu.dcache.overall_accesses::total       699385                       # number of overall (read+write) accesses
system.cpu.dcache.demand_miss_rate::.cpu.data     0.051146                       # miss rate for demand accesses
system.cpu.dcache.demand_miss_rate::total     0.051146                       # miss rate for demand accesses
system.cpu.dcache.overall_miss_rate::.cpu.data     0.051146                       # miss rate for overall accesses
system.cpu.dcache.overall_miss_rate::total     0.051146                       # miss rate for overall accesses
system.cpu.dcache.demand_avg_miss_latency::.cpu.data 48514.897459                       # average overall miss latency
system.cpu.dcache.demand_avg_miss_latency::total 48514.897459                       # average overall miss latency
system.cpu.dcache.overall_avg_miss_latency::.cpu.data 48514.897459                       # average overall miss latency
system.cpu.dcache.overall_avg_miss_latency::total 48514.897459                       # average overall miss latency
system.cpu.dcache.blocked_cycles::no_mshrs        29998                       # number of cycles access was blocked
system.cpu.dcache.blocked_cycles::no_targets          138                       # number of cycles access was blocked
system.cpu.dcache.blocked::no_mshrs               784                       # number of cycles access was blocked
system.cpu.dcache.blocked::no_targets               1                       # number of cycles access was blocked
system.cpu.dcache.avg_blocked_cycles::no_mshrs    38.262755                       # average number of cycles each access was blocked
system.cpu.dcache.avg_blocked_cycles::no_targets          138                       # average number of cycles each access was blocked
system.cpu.dcache.unused_prefetches              1833                       # number of HardPF blocks evicted w/o reference
system.cpu.dcache.writebacks::.writebacks         2844                       # number of writebacks
system.cpu.dcache.writebacks::total              2844                       # number of writebacks
system.cpu.dcache.demand_mshr_hits::.cpu.data        22923                       # number of demand (read+write) MSHR hits
system.cpu.dcache.demand_mshr_hits::total        22923                       # number of demand (read+write) MSHR hits
system.cpu.dcache.overall_mshr_hits::.cpu.data        22923                       # number of overall MSHR hits
system.cpu.dcache.overall_mshr_hits::total        22923                       # number of overall MSHR hits
system.cpu.dcache.demand_mshr_misses::.cpu.data        12848                       # number of demand (read+write) MSHR misses
system.cpu.dcache.demand_mshr_misses::total        12848                       # number of demand (read+write) MSHR misses
system.cpu.dcache.overall_mshr_misses::.cpu.data        12848                       # number of overall MSHR misses
system.cpu.dcache.overall_mshr_misses::.cpu.dcache.prefetcher         4341                       # number of overall MSHR misses
system.cpu.dcache.overall_mshr_misses::total        17189                       # number of overall MSHR misses
system.cpu.dcache.demand_mshr_miss_latency::.cpu.data    589521197                       # number of demand (read+write) MSHR miss cycles
system.cpu.dcache.demand_mshr_miss_latency::total    589521197                       # number of demand (read+write) MSHR miss cycles
system.cpu.dcache.overall_mshr_miss_latency::.cpu.data    589521197                       # number of overall MSHR miss cycles
system.cpu.dcache.overall_mshr_miss_latency::.cpu.dcache.prefetcher    254330549                       # number of overall MSHR miss cycles
system.cpu.dcache.overall_mshr_miss_latency::total    843851746                       # number of overall MSHR miss cycles
system.cpu.dcache.demand_mshr_miss_rate::.cpu.data     0.018370                       # mshr miss rate for demand accesses
system.cpu.dcache.demand_mshr_miss_rate::total     0.018370                       # mshr miss rate for demand accesses
system.cpu.dcache.overall_mshr_miss_rate::.cpu.data     0.018370                       # mshr miss rate for overall accesses
system.cpu.dcache.overall_mshr_miss_rate::.cpu.dcache.prefetcher          inf                       # mshr miss rate for overall accesses
system.cpu.dcache.overall_mshr_miss_rate::total     0.024577                       # mshr miss rate for overall accesses
system.cpu.dcache.demand_avg_mshr_miss_latency::.cpu.data 45884.277475                       # average overall mshr miss latency
system.cpu.dcache.demand_avg_mshr_miss_latency::total 45884.277475                       # average overall mshr miss latency
system.cpu.dcache.overall_avg_mshr_miss_latency::.cpu.data 45884.277475                       # average overall mshr miss latency
system.cpu.dcache.overall_avg_mshr_miss_latency::.cpu.dcache.prefetcher 58588.009445                       # average overall mshr miss latency
system.cpu.dcache.overall_avg_mshr_miss_latency::total 49092.544418                       # average overall mshr miss latency
system.cpu.dcache.replacements                  16165                       # number of replacements
system.cpu.dcache.ReadReq_hits::.cpu.data       496770                       # number of ReadReq hits
system.cpu.dcache.ReadReq_hits::total          496770                       # number of ReadReq hits
system.cpu.dcache.ReadReq_misses::.cpu.data        33579                       # number of ReadReq misses
system.cpu.dcache.ReadReq_misses::total         33579                       # number of ReadReq misses
system.cpu.dcache.ReadReq_miss_latency::.cpu.data   1624347600                       # number of ReadReq miss cycles
system.cpu.dcache.ReadReq_miss_latency::total   1624347600                       # number of ReadReq miss cycles
system.cpu.dcache.ReadReq_accesses::.cpu.data       530349                       # number of ReadReq accesses(hits+misses)
system.cpu.dcache.ReadReq_accesses::total       530349                       # number of ReadReq accesses(hits+misses)
system.cpu.dcache.ReadReq_miss_rate::.cpu.data     0.063315                       # miss rate for ReadReq accesses
system.cpu.dcache.ReadReq_miss_rate::total     0.063315                       # miss rate for ReadReq accesses
system.cpu.dcache.ReadReq_avg_miss_latency::.cpu.data 48373.912267                       # average ReadReq miss latency
system.cpu.dcache.ReadReq_avg_miss_latency::total 48373.912267                       # average ReadReq miss latency
system.cpu.dcache.ReadReq_mshr_hits::.cpu.data        22877                       # number of ReadReq MSHR hits
system.cpu.dcache.ReadReq_mshr_hits::total        22877                       # number of ReadReq MSHR hits
system.cpu.dcache.ReadReq_mshr_misses::.cpu.data        10702                       # number of ReadReq MSHR misses
system.cpu.dcache.ReadReq_mshr_misses::total        10702                       # number of ReadReq MSHR misses
system.cpu.dcache.ReadReq_mshr_miss_latency::.cpu.data    481786400                       # number of ReadReq MSHR miss cycles
system.cpu.dcache.ReadReq_mshr_miss_latency::total    481786400                       # number of ReadReq MSHR miss cycles
system.cpu.dcache.ReadReq_mshr_miss_rate::.cpu.data     0.020179                       # mshr miss rate for ReadReq accesses
system.cpu.dcache.ReadReq_mshr_miss_rate::total     0.020179                       # mshr miss rate for ReadReq accesses
system.cpu.dcache.ReadReq_avg_mshr_miss_latency::.cpu.data 45018.351710                       # average ReadReq mshr miss latency
system.cpu.dcache.ReadReq_avg_mshr_miss_latency::total 45018.351710                       # average ReadReq mshr miss latency
system.cpu.dcache.WriteReq_hits::.cpu.data       166844                       # number of WriteReq hits
system.cpu.dcache.WriteReq_hits::total         166844                       # number of WriteReq hits
system.cpu.dcache.WriteReq_misses::.cpu.data         2192                       # number of WriteReq misses
system.cpu.dcache.WriteReq_misses::total         2192                       # number of WriteReq misses
system.cpu.dcache.WriteReq_miss_latency::.cpu.data    111078797                       # number of WriteReq miss cycles
system.cpu.dcache.WriteReq_miss_latency::total    111078797                       # number of WriteReq miss cycles
system.cpu.dcache.WriteReq_accesses::.cpu.data       169036                       # number of WriteReq accesses(hits+misses)
system.cpu.dcache.WriteReq_accesses::total       169036                       # number of WriteReq accesses(hits+misses)
system.cpu.dcache.WriteReq_miss_rate::.cpu.data     0.012968                       # miss rate for WriteReq accesses
system.cpu.dcache.WriteReq_miss_rate::total     0.012968                       # miss rate for WriteReq accesses
system.cpu.dcache.WriteReq_avg_miss_latency::.cpu.data 50674.633668                       # average WriteReq miss latency
system.cpu.dcache.WriteReq_avg_miss_latency::total 50674.633668                       # average WriteReq miss latency
system.cpu.dcache.WriteReq_mshr_hits::.cpu.data           46                       # number of WriteReq MSHR hits
system.cpu.dcache.WriteReq_mshr_hits::total           46                       # number of WriteReq MSHR hits
system.cpu.dcache.WriteReq_mshr_misses::.cpu.data         2146                       # number of WriteReq MSHR misses
system.cpu.dcache.WriteReq_mshr_misses::total         2146                       # number of WriteReq MSHR misses
[...]
system.l2cache.demand_mshr_miss_rate::.cpu.dcache.prefetcher     0.640000                       # mshr miss rate for demand accesses
system.l2cache.demand_mshr_miss_rate::total     0.468978                       # mshr miss rate for demand accesses
system.l2cache.overall_mshr_miss_rate::.cpu.inst     0.446575                       # mshr miss rate for overall accesses
system.l2cache.overall_mshr_miss_rate::.cpu.data     0.493671                       # mshr miss rate for overall accesses
system.l2cache.overall_mshr_miss_rate::.cpu.dcache.prefetcher     0.640000                       # mshr miss rate for overall accesses
system.l2cache.overall_mshr_miss_rate::.l2cache.prefetcher          inf                       # mshr miss rate for overall accesses
system.l2cache.overall_mshr_miss_rate::total     0.472628                       # mshr miss rate for overall accesses
system.l2cache.demand_avg_mshr_miss_latency::.cpu.inst 58851.533742                       # average overall mshr miss latency
system.l2cache.demand_avg_mshr_miss_latency::.cpu.data 60917.948718                       # average overall mshr miss latency
system.l2cache.demand_avg_mshr_miss_latency::.cpu.dcache.prefetcher 59224.062500                       # average overall mshr miss latency
system.l2cache.demand_avg_mshr_miss_latency::total 59501.887160                       # average overall mshr miss latency
system.l2cache.overall_avg_mshr_miss_latency::.cpu.inst 58851.533742                       # average overall mshr miss latency
system.l2cache.overall_avg_mshr_miss_latency::.cpu.data 60917.948718                       # average overall mshr miss latency
system.l2cache.overall_avg_mshr_miss_latency::.cpu.dcache.prefetcher 59224.062500                       # average overall mshr miss latency
system.l2cache.overall_avg_mshr_miss_latency::.l2cache.prefetcher 68998.500000                       # average overall mshr miss latency
system.l2cache.overall_avg_mshr_miss_latency::total 59575.220077                       # average overall mshr miss latency
system.l2cache.replacements                       268                       # number of replacements
system.l2cache.WritebackDirty_hits::.writebacks           55                       # number of WritebackDirty hits
system.l2cache.WritebackDirty_hits::total           55                       # number of WritebackDirty hits
system.l2cache.WritebackDirty_accesses::.writebacks           55                       # number of WritebackDirty accesses(hits+misses)
system.l2cache.WritebackDirty_accesses::total           55                       # number of WritebackDirty accesses(hits+misses)
system.l2cache.CleanEvict_mshr_misses::.writebacks            5                       # number of CleanEvict MSHR misses
system.l2cache.CleanEvict_mshr_misses::total            5                       # number of CleanEvict MSHR misses
system.l2cache.CleanEvict_mshr_miss_rate::.writebacks          inf                       # mshr miss rate for CleanEvict accesses
system.l2cache.CleanEvict_mshr_miss_rate::total          inf                       # mshr miss rate for CleanEvict accesses
system.l2cache.HardPFReq_mshr_misses::.l2cache.prefetcher            2                       # number of HardPFReq MSHR misses
system.l2cache.HardPFReq_mshr_misses::total            2                       # number of HardPFReq MSHR misses
system.l2cache.HardPFReq_mshr_miss_latency::.l2cache.prefetcher       137997                       # number of HardPFReq MSHR miss cycles
system.l2cache.HardPFReq_mshr_miss_latency::total       137997                       # number of HardPFReq MSHR miss cycles
system.l2cache.HardPFReq_mshr_miss_rate::.l2cache.prefetcher          inf                       # mshr miss rate for HardPFReq accesses
system.l2cache.HardPFReq_mshr_miss_rate::total          inf                       # mshr miss rate for HardPFReq accesses
system.l2cache.HardPFReq_avg_mshr_miss_latency::.l2cache.prefetcher 68998.500000                       # average HardPFReq mshr miss latency
system.l2cache.HardPFReq_avg_mshr_miss_latency::total 68998.500000                       # average HardPFReq mshr miss latency
system.l2cache.ReadExReq_hits::.cpu.data            8                       # number of ReadExReq hits
system.l2cache.ReadExReq_hits::total                8                       # number of ReadExReq hits
system.l2cache.ReadExReq_misses::.cpu.data            5                       # number of ReadExReq misses
system.l2cache.ReadExReq_misses::total              5                       # number of ReadExReq misses
system.l2cache.ReadExReq_miss_latency::.cpu.data       462800                       # number of ReadExReq miss cycles
system.l2cache.ReadExReq_miss_latency::total       462800                       # number of ReadExReq miss cycles
system.l2cache.ReadExReq_accesses::.cpu.data           13                       # number of ReadExReq accesses(hits+misses)
system.l2cache.ReadExReq_accesses::total           13                       # number of ReadExReq accesses(hits+misses)
system.l2cache.ReadExReq_miss_rate::.cpu.data     0.384615                       # miss rate for ReadExReq accesses
system.l2cache.ReadExReq_miss_rate::total     0.384615                       # miss rate for ReadExReq accesses
system.l2cache.ReadExReq_avg_miss_latency::.cpu.data        92560                       # average ReadExReq miss latency
system.l2cache.ReadExReq_avg_miss_latency::total        92560                       # average ReadExReq miss latency
system.l2cache.ReadExReq_mshr_misses::.cpu.data            5                       # number of ReadExReq MSHR misses
system.l2cache.ReadExReq_mshr_misses::total            5                       # number of ReadExReq MSHR misses
system.l2cache.ReadExReq_mshr_miss_latency::.cpu.data       422800                       # number of ReadExReq MSHR miss cycles
system.l2cache.ReadExReq_mshr_miss_latency::total       422800                       # number of ReadExReq MSHR miss cycles
system.l2cache.ReadExReq_mshr_miss_rate::.cpu.data     0.384615                       # mshr miss rate for ReadExReq accesses
system.l2cache.ReadExReq_mshr_miss_rate::total     0.384615                       # mshr miss rate for ReadExReq accesses
system.l2cache.ReadExReq_avg_mshr_miss_latency::.cpu.data        84560                       # average ReadExReq mshr miss latency
system.l2cache.ReadExReq_avg_mshr_miss_latency::total        84560                       # average ReadExReq mshr miss latency
system.l2cache.ReadSharedReq_hits::.cpu.inst          202                       # number of ReadSharedReq hits
system.l2cache.ReadSharedReq_hits::.cpu.data           72                       # number of ReadSharedReq hits
system.l2cache.ReadSharedReq_hits::.cpu.dcache.prefetcher            8                       # number of ReadSharedReq hits
system.l2cache.ReadSharedReq_hits::total          282                       # number of ReadSharedReq hits
system.l2cache.ReadSharedReq_misses::.cpu.inst          163                       # number of ReadSharedReq misses
system.l2cache.ReadSharedReq_misses::.cpu.data           73                       # number of ReadSharedReq misses
system.l2cache.ReadSharedReq_misses::.cpu.dcache.prefetcher           17                       # number of ReadSharedReq misses
system.l2cache.ReadSharedReq_misses::total          253                       # number of ReadSharedReq misses
system.l2cache.ReadSharedReq_miss_latency::.cpu.inst     10896800                       # number of ReadSharedReq miss cycles
system.l2cache.ReadSharedReq_miss_latency::.cpu.data      4912800                       # number of ReadSharedReq miss cycles
system.l2cache.ReadSharedReq_miss_latency::.cpu.dcache.prefetcher      1094784                       # number of ReadSharedReq miss cycles
system.l2cache.ReadSharedReq_miss_latency::total     16904384                       # number of ReadSharedReq miss cycles
system.l2cache.ReadSharedReq_accesses::.cpu.inst          365                       # number of ReadSharedReq accesses(hits+misses)
system.l2cache.ReadSharedReq_accesses::.cpu.data          145                       # number of ReadSharedReq accesses(hits+misses)
system.l2cache.ReadSharedReq_accesses::.cpu.dcache.prefetcher           25                       # number of ReadSharedReq accesses(hits+misses)
system.l2cache.ReadSharedReq_accesses::total          535                       # number of ReadSharedReq accesses(hits+misses)
system.l2cache.ReadSharedReq_miss_rate::.cpu.inst     0.446575                       # miss rate for ReadSharedReq accesses
system.l2cache.ReadSharedReq_miss_rate::.cpu.data     0.503448                       # miss rate for ReadSharedReq accesses
system.l2cache.ReadSharedReq_miss_rate::.cpu.dcache.prefetcher     0.680000                       # miss rate for ReadSharedReq accesses
system.l2cache.ReadSharedReq_miss_rate::total     0.472897                       # miss rate for ReadSharedReq accesses
system.l2cache.ReadSharedReq_avg_miss_latency::.cpu.inst 66851.533742                       # average ReadSharedReq miss latency
system.l2cache.ReadSharedReq_avg_miss_latency::.cpu.data 67298.630137                       # average ReadSharedReq miss latency
system.l2cache.ReadSharedReq_avg_miss_latency::.cpu.dcache.prefetcher 64399.058824                       # average ReadSharedReq miss latency
system.l2cache.ReadSharedReq_avg_miss_latency::total 66815.747036                       # average ReadSharedReq miss latency
system.l2cache.ReadSharedReq_mshr_hits::.cpu.dcache.prefetcher            1                       # number of ReadSharedReq MSHR hits
system.l2cache.ReadSharedReq_mshr_hits::total            1                       # number of ReadSharedReq MSHR hits
system.l2cache.ReadSharedReq_mshr_misses::.cpu.inst          163                       # number of ReadSharedReq MSHR misses
system.l2cache.ReadSharedReq_mshr_misses::.cpu.data           73                       # number of ReadSharedReq MSHR misses
system.l2cache.ReadSharedReq_mshr_misses::.cpu.dcache.prefetcher           16                       # number of ReadSharedReq MSHR misses
system.l2cache.ReadSharedReq_mshr_misses::total          252                       # number of ReadSharedReq MSHR misses
system.l2cache.ReadSharedReq_mshr_miss_latency::.cpu.inst      9592800                       # number of ReadSharedReq MSHR miss cycles
system.l2cache.ReadSharedReq_mshr_miss_latency::.cpu.data      4328800                       # number of ReadSharedReq MSHR miss cycles
system.l2cache.ReadSharedReq_mshr_miss_latency::.cpu.dcache.prefetcher       947585                       # number of ReadSharedReq MSHR miss cycles
system.l2cache.ReadSharedReq_mshr_miss_latency::total     14869185                       # number of ReadSharedReq MSHR miss cycles
system.l2cache.ReadSharedReq_mshr_miss_rate::.cpu.inst     0.446575                       # mshr miss rate for ReadSharedReq accesses
system.l2cache.ReadSharedReq_mshr_miss_rate::.cpu.data     0.503448                       # mshr miss rate for ReadSharedReq accesses
system.l2cache.ReadSharedReq_mshr_miss_rate::.cpu.dcache.prefetcher     0.640000                       # mshr miss rate for ReadSharedReq accesses
system.l2cache.ReadSharedReq_mshr_miss_rate::total     0.471028                       # mshr miss rate for ReadSharedReq accesses
system.l2cache.ReadSharedReq_avg_mshr_miss_latency::.cpu.inst 58851.533742                       # average ReadSharedReq mshr miss latency
system.l2cache.ReadSharedReq_avg_mshr_miss_latency::.cpu.data 59298.630137                       # average ReadSharedReq mshr miss latency
system.l2cache.ReadSharedReq_avg_mshr_miss_latency::.cpu.dcache.prefetcher 59224.062500                       # average ReadSharedReq mshr miss latency
system.l2cache.ReadSharedReq_avg_mshr_miss_latency::total 59004.702381                       # average ReadSharedReq mshr miss latency
system.l2cache.prefetcher.pwrStateResidencyTicks::UNDEFINED     17274800                       # Cumulative time (in ticks) in various power states
system.l2cache.tags.pwrStateResidencyTicks::UNDEFINED     17274800                       # Cumulative time (in ticks) in various power states
system.l2cache.tags.tagsinuse                    4096                       # Cycle average of tags in use
system.l2cache.tags.total_refs                1217603                       # Total number of references to valid blocks.
system.l2cache.tags.sampled_refs                 4364                       # Sample count of references to valid blocks.
system.l2cache.tags.avg_refs               279.010770                       # Average number of references to valid blocks.
system.l2cache.tags.warmup_cycle                    0                       # Cycle when the warmup percentage was hit.
system.l2cache.tags.occ_blocks::.writebacks    47.913701                       # Average occupied blocks per requestor
system.l2cache.tags.occ_blocks::.cpu.inst  1302.517151                       # Average occupied blocks per requestor
system.l2cache.tags.occ_blocks::.cpu.data  1787.908883                       # Average occupied blocks per requestor
system.l2cache.tags.occ_blocks::.cpu.dcache.prefetcher   849.211311                       # Average occupied blocks per requestor
system.l2cache.tags.occ_blocks::.l2cache.prefetcher   108.448954                       # Average occupied blocks per requestor
system.l2cache.tags.occ_percent::.writebacks     0.011698                       # Average percentage of cache occupancy
system.l2cache.tags.occ_percent::.cpu.inst     0.317997                       # Average percentage of cache occupancy
system.l2cache.tags.occ_percent::.cpu.data     0.436501                       # Average percentage of cache occupancy
system.l2cache.tags.occ_percent::.cpu.dcache.prefetcher     0.207327                       # Average percentage of cache occupancy
system.l2cache.tags.occ_percent::.l2cache.prefetcher     0.026477                       # Average percentage of cache occupancy
system.l2cache.tags.occ_percent::total              1                       # Average percentage of cache occupancy
system.l2cache.tags.occ_task_id_blocks::1022          920                       # Occupied blocks per task id
system.l2cache.tags.occ_task_id_blocks::1024         3176                       # Occupied blocks per task id
system.l2cache.tags.age_task_id_blocks_1022::0           14                       # Occupied blocks per task id
system.l2cache.tags.age_task_id_blocks_1022::1            4                       # Occupied blocks per task id
system.l2cache.tags.age_task_id_blocks_1022::2            1                       # Occupied blocks per task id
system.l2cache.tags.age_task_id_blocks_1022::3          898                       # Occupied blocks per task id
system.l2cache.tags.age_task_id_blocks_1022::4            3                       # Occupied blocks per task id
system.l2cache.tags.age_task_id_blocks_1024::0          178                       # Occupied blocks per task id
system.l2cache.tags.age_task_id_blocks_1024::1           74                       # Occupied blocks per task id
system.l2cache.tags.age_task_id_blocks_1024::3         2888                       # Occupied blocks per task id
system.l2cache.tags.age_task_id_blocks_1024::4           36                       # Occupied blocks per task id
system.l2cache.tags.occ_task_id_percent::1022     0.224609                       # Percentage of cache occupancy per task id
system.l2cache.tags.occ_task_id_percent::1024     0.775391                       # Percentage of cache occupancy per task id
system.l2cache.tags.tag_accesses                 9036                       # Number of tag accesses
system.l2cache.tags.data_accesses                9036                       # Number of data accesses
system.mem_ctrl.pwrStateResidencyTicks::UNDEFINED     17274800                       # Cumulative time (in ticks) in various power states
system.mem_ctrl.bytes_read::.cpu.inst           10432                       # Number of bytes read from this memory
system.mem_ctrl.bytes_read::.cpu.data            4992                       # Number of bytes read from this memory
system.mem_ctrl.bytes_read::.cpu.dcache.prefetcher         1024                       # Number of bytes read from this memory
system.mem_ctrl.bytes_read::.l2cache.prefetcher          128                       # Number of bytes read from this memory
system.mem_ctrl.bytes_read::total               16576                       # Number of bytes read from this memory
system.mem_ctrl.bytes_inst_read::.cpu.inst        10432                       # Number of instructions bytes read from this memory
system.mem_ctrl.bytes_inst_read::total          10432                       # Number of instructions bytes read from this memory
system.mem_ctrl.bytes_written::.writebacks         1024                       # Number of bytes written to this memory
system.mem_ctrl.bytes_written::total             1024                       # Number of bytes written to this memory
system.mem_ctrl.num_reads::.cpu.inst              163                       # Number of read requests responded to by this memory
system.mem_ctrl.num_reads::.cpu.data               78                       # Number of read requests responded to by this memory
system.mem_ctrl.num_reads::.cpu.dcache.prefetcher           16                       # Number of read requests responded to by this memory
system.mem_ctrl.num_reads::.l2cache.prefetcher            2                       # Number of read requests responded to by this memory
system.mem_ctrl.num_reads::total                  259                       # Number of read requests responded to by this memory
system.mem_ctrl.num_writes::.writebacks            16                       # Number of write requests responded to by this memory
system.mem_ctrl.num_writes::total                  16                       # Number of write requests responded to by this memory
system.mem_ctrl.bw_read::.cpu.inst          603885428                       # Total read bandwidth from this memory (bytes/s)
system.mem_ctrl.bw_read::.cpu.data          288975849                       # Total read bandwidth from this memory (bytes/s)
system.mem_ctrl.bw_read::.cpu.dcache.prefetcher     59277097                       # Total read bandwidth from this memory (bytes/s)
system.mem_ctrl.bw_read::.l2cache.prefetcher      7409637                       # Total read bandwidth from this memory (bytes/s)
system.mem_ctrl.bw_read::total              959548012                       # Total read bandwidth from this memory (bytes/s)
system.mem_ctrl.bw_inst_read::.cpu.inst     603885428                       # Instruction read bandwidth from this memory (bytes/s)
system.mem_ctrl.bw_inst_read::total         603885428                       # Instruction read bandwidth from this memory (bytes/s)
system.mem_ctrl.bw_write::.writebacks        59277097                       # Write bandwidth from this memory (bytes/s)
system.mem_ctrl.bw_write::total              59277097                       # Write bandwidth from this memory (bytes/s)
system.mem_ctrl.bw_total::.writebacks        59277097                       # Total bandwidth to/from this memory (bytes/s)
system.mem_ctrl.bw_total::.cpu.inst         603885428                       # Total bandwidth to/from this memory (bytes/s)
system.mem_ctrl.bw_total::.cpu.data         288975849                       # Total bandwidth to/from this memory (bytes/s)
system.mem_ctrl.bw_total::.cpu.dcache.prefetcher     59277097                       # Total bandwidth to/from this memory (bytes/s)
system.mem_ctrl.bw_total::.l2cache.prefetcher      7409637                       # Total bandwidth to/from this memory (bytes/s)
system.mem_ctrl.bw_total::total            1018825109                       # Total bandwidth to/from this memory (bytes/s)

---------- End Simulation Statistics   ----------
