
---------- Begin Simulation Statistics ----------
final_tick                                 1120654000                       # Number of ticks from beginning of simulation (restored from checkpoints and never reset)
host_inst_rate                                 183140                       # Simulator instruction rate (inst/s)
host_mem_usage                                4406828                       # Number of bytes of host memory used
host_op_rate                                   319358                       # Simulator op (including micro ops) rate (op/s)
host_seconds                                    11.57                       # Real time elapsed on the host
host_tick_rate                               96835126                       # Simulator tick rate (ticks/s)
sim_freq                                 1000000000000                       # Frequency of simulated ticks
sim_insts                                     2119429                       # Number of instructions simulated
sim_ops                                       3695859                       # Number of ops (including micro ops) simulated
sim_seconds                                  0.001121                       # Number of seconds simulated
sim_ticks                                  1120654000                       # Number of ticks simulated
system.cpu.branchPred.BTBCorrect                    0                       # Number of correct BTB predictions (this stat may not work properly.
system.cpu.branchPred.BTBHitPct              0.000000                       # BTB Hit Percentage
system.cpu.branchPred.BTBHits                       0                       # Number of BTB hits
system.cpu.branchPred.BTBLookups               449347                       # Number of BTB lookups
system.cpu.branchPred.RASInCorrect                  8                       # Number of incorrect RAS predictions.
system.cpu.branchPred.condIncorrect             25408                       # Number of conditional branches incorrect
system.cpu.branchPred.condPredicted            477072                       # Number of conditional branches predicted
system.cpu.branchPred.indirectHits             244233                       # Number of indirect target hits.
system.cpu.branchPred.indirectLookups          449347                       # Number of indirect predictor lookups.
system.cpu.branchPred.indirectMisses           205114                       # Number of indirect misses.
system.cpu.branchPred.lookups                  505427                       # Number of BP lookups
system.cpu.branchPred.usedRAS                   12220                       # Number of times the RAS was used to get a target.
system.cpu.branchPredindirectMispredicted        13018                       # Number of mispredicted indirect branches.
system.cpu.cc_regfile_reads                   2433316                       # number of cc regfile reads
system.cpu.cc_regfile_writes                  1973659                       # number of cc regfile writes
system.cpu.commit.amos                              0                       # Number of atomic instructions committed
system.cpu.commit.branchMispredicts             25512                       # The number of times a branch was mispredicted
system.cpu.commit.branches                     356399                       # Number of branches committed
system.cpu.commit.bw_lim_events                611359                       # number cycles where commit BW limit reached
system.cpu.commit.commitNonSpecStalls             742                       # The number of times commit has been forced to stall to communicate backwards
system.cpu.commit.commitSquashedInsts          914562                       # The number of squashed insts skipped by commit
system.cpu.commit.committedInsts              2119429                       # Number of instructions committed
system.cpu.commit.committedOps                3695859                       # Number of ops (including micro ops) committed
system.cpu.commit.committed_per_cycle::samples      2388749                       # Number of insts commited each cycle
system.cpu.commit.committed_per_cycle::mean     1.547194                       # Number of insts commited each cycle
system.cpu.commit.committed_per_cycle::stdev     1.721696                       # Number of insts commited each cycle
system.cpu.commit.committed_per_cycle::underflows            0      0.00%      0.00% # Number of insts commited each cycle
system.cpu.commit.committed_per_cycle::0      1175081     49.19%     49.19% # Number of insts commited each cycle
system.cpu.commit.committed_per_cycle::1       189512      7.93%     57.13% # Number of insts commited each cycle
system.cpu.commit.committed_per_cycle::2       177480      7.43%     64.56% # Number of insts commited each cycle
system.cpu.commit.committed_per_cycle::3       235317      9.85%     74.41% # Number of insts commited each cycle
system.cpu.commit.committed_per_cycle::4       611359     25.59%    100.00% # Number of insts commited each cycle
system.cpu.commit.committed_per_cycle::overflows            0      0.00%    100.00% # Number of insts commited each cycle
system.cpu.commit.committed_per_cycle::min_value            0                       # Number of insts commited each cycle
system.cpu.commit.committed_per_cycle::max_value            4                       # Number of insts commited each cycle
system.cpu.commit.committed_per_cycle::total      2388749                       # Number of insts commited each cycle
system.cpu.commit.fp_insts                      78611                       # Number of committed floating point instructions.
system.cpu.commit.function_calls                10258                       # Number of function calls committed.
system.cpu.commit.int_insts                   3636631                       # Number of committed integer instructions.
system.cpu.commit.loads                        504080                       # Number of loads committed
system.cpu.commit.membars                           1                       # Number of memory barriers committed
system.cpu.commit.op_class_0::No_OpClass        21036      0.57%      0.57% # Class of committed instruction
system.cpu.commit.op_class_0::IntAlu          2905827     78.62%     79.19% # Class of committed instruction
system.cpu.commit.op_class_0::IntMult            1999      0.05%     79.25% # Class of committed instruction
system.cpu.commit.op_class_0::IntDiv            37722      1.02%     80.27% # Class of committed instruction
system.cpu.commit.op_class_0::FloatAdd           3088      0.08%     80.35% # Class of committed instruction
system.cpu.commit.op_class_0::FloatCmp              0      0.00%     80.35% # Class of committed instruction
system.cpu.commit.op_class_0::FloatCvt           1216      0.03%     80.38% # Class of committed instruction
system.cpu.commit.op_class_0::FloatMult             0      0.00%     80.38% # Class of committed instruction
system.cpu.commit.op_class_0::FloatMultAcc            0      0.00%     80.38% # Class of committed instruction
system.cpu.commit.op_class_0::FloatDiv              0      0.00%     80.38% # Class of committed instruction
system.cpu.commit.op_class_0::FloatMisc             0      0.00%     80.38% # Class of committed instruction
system.cpu.commit.op_class_0::FloatSqrt             0      0.00%     80.38% # Class of committed instruction
system.cpu.commit.op_class_0::SimdAdd            6262      0.17%     80.55% # Class of committed instruction
system.cpu.commit.op_class_0::SimdAddAcc            0      0.00%     80.55% # Class of committed instruction
system.cpu.commit.op_class_0::SimdAlu           12059      0.33%     80.88% # Class of committed instruction
system.cpu.commit.op_class_0::SimdCmp               0      0.00%     80.88% # Class of committed instruction
system.cpu.commit.op_class_0::SimdCvt           12984      0.35%     81.23% # Class of committed instruction
system.cpu.commit.op_class_0::SimdMisc           8300      0.22%     81.46% # Class of committed instruction
system.cpu.commit.op_class_0::SimdMult              0      0.00%     81.46% # Class of committed instruction
system.cpu.commit.op_class_0::SimdMultAcc            0      0.00%     81.46% # Class of committed instruction
system.cpu.commit.op_class_0::SimdShift          1229      0.03%     81.49% # Class of committed instruction
system.cpu.commit.op_class_0::SimdShiftAcc            0      0.00%     81.49% # Class of committed instruction
system.cpu.commit.op_class_0::SimdDiv               0      0.00%     81.49% # Class of committed instruction
system.cpu.commit.op_class_0::SimdSqrt              0      0.00%     81.49% # Class of committed instruction
system.cpu.commit.op_class_0::SimdFloatAdd            0      0.00%     81.49% # Class of committed instruction
system.cpu.commit.op_class_0::SimdFloatAlu            0      0.00%     81.49% # Class of committed instruction
system.cpu.commit.op_class_0::SimdFloatCmp            0      0.00%     81.49% # Class of committed instruction
system.cpu.commit.op_class_0::SimdFloatCvt            0      0.00%     81.49% # Class of committed instruction
system.cpu.commit.op_class_0::SimdFloatDiv            0      0.00%     81.49% # Class of committed instruction
system.cpu.commit.op_class_0::SimdFloatMisc            0      0.00%     81.49% # Class of committed instruction
system.cpu.commit.op_class_0::SimdFloatMult            0      0.00%     81.49% # Class of committed instruction
system.cpu.commit.op_class_0::SimdFloatMultAcc            0      0.00%     81.49% # Class of committed instruction
system.cpu.commit.op_class_0::SimdFloatSqrt            0      0.00%     81.49% # Class of committed instruction
system.cpu.commit.op_class_0::SimdReduceAdd            0      0.00%     81.49% # Class of committed instruction
system.cpu.commit.op_class_0::SimdReduceAlu            0      0.00%     81.49% # Class of committed instruction
system.cpu.commit.op_class_0::SimdReduceCmp            0      0.00%     81.49% # Class of committed instruction
system.cpu.commit.op_class_0::SimdFloatReduceAdd            0      0.00%     81.49% # Class of committed instruction
system.cpu.commit.op_class_0::SimdFloatReduceCmp            0      0.00%     81.49% # Class of committed instruction
system.cpu.commit.op_class_0::SimdAes               0      0.00%     81.49% # Class of committed instruction
system.cpu.commit.op_class_0::SimdAesMix            0      0.00%     81.49% # Class of committed instruction
system.cpu.commit.op_class_0::SimdSha1Hash            0      0.00%     81.49% # Class of committed instruction
system.cpu.commit.op_class_0::SimdSha1Hash2            0      0.00%     81.49% # Class of committed instruction
system.cpu.commit.op_class_0::SimdSha256Hash            0      0.00%     81.49% # Class of committed instruction
system.cpu.commit.op_class_0::SimdSha256Hash2            0      0.00%     81.49% # Class of committed instruction
system.cpu.commit.op_class_0::SimdShaSigma2            0      0.00%     81.49% # Class of committed instruction
system.cpu.commit.op_class_0::SimdShaSigma3            0      0.00%     81.49% # Class of committed instruction
system.cpu.commit.op_class_0::SimdPredAlu            0      0.00%     81.49% # Class of committed instruction
system.cpu.commit.op_class_0::MemRead          484280     13.10%     94.59% # Class of committed instruction
system.cpu.commit.op_class_0::MemWrite         167818      4.54%     99.13% # Class of committed instruction
system.cpu.commit.op_class_0::FloatMemRead        19800      0.54%     99.67% # Class of committed instruction
system.cpu.commit.op_class_0::FloatMemWrite        12239      0.33%    100.00% # Class of committed instruction
system.cpu.commit.op_class_0::IprAccess             0      0.00%    100.00% # Class of committed instruction
system.cpu.commit.op_class_0::InstPrefetch            0      0.00%    100.00% # Class of committed instruction
system.cpu.commit.op_class_0::total           3695859                       # Class of committed instruction
system.cpu.commit.refs                         684137                       # Number of memory references committed
system.cpu.commit.swp_count                         0                       # Number of s/w prefetches committed
system.cpu.commit.vec_insts                         0                       # Number of committed Vector instructions.
system.cpu.committedInsts                     2119429                       # Number of Instructions Simulated
system.cpu.committedOps                       3695859                       # Number of Ops (including micro ops) Simulated
system.cpu.cpi                               1.321882                       # CPI: Cycles Per Instruction
system.cpu.cpi_total                         1.321882                       # CPI: Total CPI of All Threads
system.cpu.dcache.prefetcher.num_hwpf_issued         7686                       # number of hwpf issued
system.cpu.dcache.prefetcher.pfBufferHit        33479                       # number of redundant prefetches already in prefetch queue
system.cpu.dcache.prefetcher.pfIdentified        49237                       # number of prefetch candidates identified
system.cpu.dcache.prefetcher.pfInCache              0                       # number of redundant prefetches already in cache/mshr dropped
system.cpu.dcache.prefetcher.pfRemovedFull            0                       # number of prefetches dropped due to prefetch queue size
system.cpu.dcache.prefetcher.pfSpanPage          4407                       # number of prefetches that crossed the page
system.cpu.decode.BlockedCycles               1037346                       # Number of cycles decode is blocked
system.cpu.decode.DecodedInsts                4837253                       # Number of instructions handled by decode
system.cpu.decode.IdleCycles                   307645                       # Number of cycles decode is idle
system.cpu.decode.RunCycles                   1178258                       # Number of cycles decode is running
system.cpu.decode.SquashCycles                  25584                       # Number of cycles decode is squashing
system.cpu.decode.UnblockCycles                 90002                       # Number of cycles decode is unblocking
system.cpu.dtb.rdAccesses                      590543                       # TLB accesses on read requests
system.cpu.dtb.rdMisses                          2021                       # TLB misses on read requests
system.cpu.dtb.wrAccesses                      200763                       # TLB accesses on write requests
system.cpu.dtb.wrMisses                           166                       # TLB misses on write requests
system.cpu.fetch.Branches                      505427                       # Number of branches that fetch encountered
system.cpu.fetch.CacheLines                    251626                       # Number of cache lines fetched
system.cpu.fetch.Cycles                       2269331                       # Number of cycles fetch has run and was not squashing or blocked
system.cpu.fetch.IcacheSquashes                  4819                       # Number of outstanding Icache misses that were squashed
system.cpu.fetch.Insts                        2914855                       # Number of instructions fetch has processed
system.cpu.fetch.MiscStallCycles                  144                       # Number of cycles fetch has spent waiting on interrupts, or bad addresses, or out of MSHRs
system.cpu.fetch.PendingQuiesceStallCycles            6                       # Number of stall cycles due to pending quiesce instructions
system.cpu.fetch.PendingTrapStallCycles           711                       # Number of stall cycles due to pending traps
system.cpu.fetch.SquashCycles                   51168                       # Number of cycles fetch has spent squashing
system.cpu.fetch.branchRate                  0.180404                       # Number of branch fetches per cycle
system.cpu.fetch.icacheStallCycles             343059                       # Number of cycles fetch is stalled on an Icache miss
system.cpu.fetch.predictedBranches             256453                       # Number of branches that fetch has predicted taken
system.cpu.fetch.rate                        1.040412                       # Number of inst fetches per cycle
system.cpu.fetch.rateDist::samples            2638835                       # Number of instructions fetched each cycle (Total)
system.cpu.fetch.rateDist::mean              1.941284                       # Number of instructions fetched each cycle (Total)
system.cpu.fetch.rateDist::stdev             1.930294                       # Number of instructions fetched each cycle (Total)
system.cpu.fetch.rateDist::underflows               0      0.00%      0.00% # Number of instructions fetched each cycle (Total)
system.cpu.fetch.rateDist::0                  1249223     47.34%     47.34% # Number of instructions fetched each cycle (Total)
system.cpu.fetch.rateDist::1                    78711      2.98%     50.32% # Number of instructions fetched each cycle (Total)
system.cpu.fetch.rateDist::2                    60522      2.29%     52.62% # Number of instructions fetched each cycle (Total)
system.cpu.fetch.rateDist::3                    78543      2.98%     55.59% # Number of instructions fetched each cycle (Total)
system.cpu.fetch.rateDist::4                  1171836     44.41%    100.00% # Number of instructions fetched each cycle (Total)
system.cpu.fetch.rateDist::overflows                0      0.00%    100.00% # Number of instructions fetched each cycle (Total)
system.cpu.fetch.rateDist::min_value                0                       # Number of instructions fetched each cycle (Total)
system.cpu.fetch.rateDist::max_value                4                       # Number of instructions fetched each cycle (Total)
system.cpu.fetch.rateDist::total              2638835                       # Number of instructions fetched each cycle (Total)
system.cpu.fp_regfile_reads                    131454                       # number of floating regfile reads
system.cpu.fp_regfile_writes                    72095                       # number of floating regfile writes
system.cpu.fuPool.fu_ticks_busy::IntALU(0)    223260800                       # Total ticks fu was busy
system.cpu.fuPool.fu_ticks_busy::IntALU(1)    223260800                       # Total ticks fu was busy
system.cpu.fuPool.fu_ticks_busy::IntALU(2)    223260800                       # Total ticks fu was busy
system.cpu.fuPool.fu_ticks_busy::IntALU(3)    223260800                       # Total ticks fu was busy
system.cpu.fuPool.fu_ticks_busy::IntALU(4)    223260400                       # Total ticks fu was busy
system.cpu.fuPool.fu_ticks_busy::IntALU(5)    223260400                       # Total ticks fu was busy
system.cpu.fuPool.fu_ticks_busy::IntMultDiv(0)      8725600                       # Total ticks fu was busy
system.cpu.fuPool.fu_ticks_busy::IntMultDiv(1)      8724800                       # Total ticks fu was busy
system.cpu.fuPool.fu_ticks_busy::FP_ALU(0)       602800                       # Total ticks fu was busy
system.cpu.fuPool.fu_ticks_busy::FP_ALU(1)       602800                       # Total ticks fu was busy
system.cpu.fuPool.fu_ticks_busy::FP_ALU(2)       602000                       # Total ticks fu was busy
system.cpu.fuPool.fu_ticks_busy::FP_ALU(3)       602000                       # Total ticks fu was busy
system.cpu.fuPool.fu_ticks_busy::FP_MultDiv(0)            0                       # Total ticks fu was busy
system.cpu.fuPool.fu_ticks_busy::FP_MultDiv(1)            0                       # Total ticks fu was busy
system.cpu.fuPool.fu_ticks_busy::SIMD_Unit(0)      4917200                       # Total ticks fu was busy
system.cpu.fuPool.fu_ticks_busy::SIMD_Unit(1)      4872400                       # Total ticks fu was busy
system.cpu.fuPool.fu_ticks_busy::SIMD_Unit(2)      4991200                       # Total ticks fu was busy
system.cpu.fuPool.fu_ticks_busy::SIMD_Unit(3)      5058800                       # Total ticks fu was busy
system.cpu.fuPool.fu_ticks_busy::PredALU(0)            0                       # Total ticks fu was busy
system.cpu.fuPool.fu_ticks_busy::RdWrPort(0)     80696400                       # Total ticks fu was busy
system.cpu.fuPool.fu_ticks_busy::RdWrPort(1)     80693200                       # Total ticks fu was busy
system.cpu.fuPool.fu_ticks_busy::RdWrPort(2)     80663200                       # Total ticks fu was busy
system.cpu.fuPool.fu_ticks_busy::RdWrPort(3)     80731600                       # Total ticks fu was busy
system.cpu.fuPool.fu_ticks_busy::IprPort(0)            0                       # Total ticks fu was busy
system.cpu.fuPool.fu_ticks_busy::total     1702048000                       # Total ticks fu was busy
system.cpu.icache.prefetcher.num_hwpf_issued            0                       # number of hwpf issued
system.cpu.icache.prefetcher.pfBufferHit            0                       # number of redundant prefetches already in prefetch queue
system.cpu.icache.prefetcher.pfIdentified            0                       # number of prefetch candidates identified
system.cpu.icache.prefetcher.pfInCache              0                       # number of redundant prefetches already in cache/mshr dropped
system.cpu.icache.prefetcher.pfRemovedFull            0                       # number of prefetches dropped due to prefetch queue size
system.cpu.icache.prefetcher.pfSpanPage             0                       # number of prefetches that crossed the page
system.cpu.idleCycles                          162801                       # Total number of cycles that the CPU has spent unscheduled due to idling
system.cpu.iew.branchMispredicts                30167                       # Number of branch mispredicts detected at execute
system.cpu.iew.exec_branches                   387689                       # Number of branches executed
system.cpu.iew.exec_nop                             0                       # number of nop insts executed
system.cpu.iew.exec_rate                     1.515537                       # Inst execution rate
system.cpu.iew.exec_refs                       792900                       # number of memory reference insts executed
system.cpu.iew.exec_stores                     200730                       # Number of stores executed
system.cpu.iew.exec_swp                             0                       # number of swp insts executed
system.cpu.iew.iewBlockCycles                  702381                       # Number of cycles IEW is blocking
system.cpu.iew.iewDispLoadInsts                624461                       # Number of dispatched load instructions
system.cpu.iew.iewDispNonSpecInsts                945                       # Number of dispatched non-speculative instructions
system.cpu.iew.iewDispSquashedInsts               545                       # Number of squashed instructions skipped by dispatch
system.cpu.iew.iewDispStoreInsts               212124                       # Number of dispatched store instructions
system.cpu.iew.iewDispatchedInsts             4610370                       # Number of instructions dispatched to IQ
system.cpu.iew.iewExecLoadInsts                592170                       # Number of load instructions executed
system.cpu.iew.iewExecSquashedInsts             36517                       # Number of squashed instructions skipped in execute
system.cpu.iew.iewExecutedInsts               4245984                       # Number of executed instructions
system.cpu.iew.iewIQFullEvents                   3307                       # Number of times the IQ has become full, causing a stall
system.cpu.iew.iewIdleCycles                        0                       # Number of cycles IEW is idle
system.cpu.iew.iewLSQFullEvents                  9183                       # Number of times the LSQ has become full, causing a stall
system.cpu.iew.iewSquashCycles                  25584                       # Number of cycles IEW is squashing
system.cpu.iew.iewUnblockCycles                 15356                       # Number of cycles IEW is unblocking
system.cpu.iew.lsq.thread0.blockedLoads             0                       # Number of blocked loads due to partial load-store forwarding
system.cpu.iew.lsq.thread0.cacheBlocked           602                       # Number of times an access to memory failed due to the cache being blocked
system.cpu.iew.lsq.thread0.forwLoads            40967                       # Number of loads that had data forwarded from stores
system.cpu.iew.lsq.thread0.ignoredResponses          248                       # Number of memory responses ignored because the instruction is squashed
system.cpu.iew.lsq.thread0.invAddrLoads             0                       # Number of loads ignored due to an invalid address
system.cpu.iew.lsq.thread0.invAddrSwpfs             0                       # Number of software prefetches ignored due to an invalid address
system.cpu.iew.lsq.thread0.memOrderViolation           85                       # Number of memory ordering violations
system.cpu.iew.lsq.thread0.rescheduledLoads           17                       # Number of loads that were rescheduled
system.cpu.iew.lsq.thread0.squashedLoads       120379                       # Number of loads squashed
system.cpu.iew.lsq.thread0.squashedStores        32066                       # Number of stores squashed
system.cpu.iew.memOrderViolationEvents             85                       # Number of memory order violations
system.cpu.iew.predictedNotTakenIncorrect        21843                       # Number of branches that were predicted not taken incorrectly
system.cpu.iew.predictedTakenIncorrect           8324                       # Number of branches that were predicted taken incorrectly
system.cpu.iew.wb_consumers                   5909700                       # num instructions consuming a value
system.cpu.iew.wb_count                       4222755                       # cumulative count of insts written-back
system.cpu.iew.wb_fanout                     0.568706                       # average fanout of values written-back
system.cpu.iew.wb_producers                   3360883                       # num instructions producing a value
system.cpu.iew.wb_rate                       1.507246                       # insts written-back per cycle
system.cpu.iew.wb_sent                        4230099                       # cumulative count of insts sent to commit
system.cpu.int_regfile_reads                  6565434                       # number of integer regfile reads
system.cpu.int_regfile_writes                 3638931                       # number of integer regfile writes
system.cpu.ipc                               0.756497                       # IPC: Instructions Per Cycle
system.cpu.ipc_total                         0.756497                       # IPC: Total IPC of All Threads
system.cpu.iq.FU_type_0::No_OpClass             27381      0.64%      0.64% # Type of FU issued
system.cpu.iq.FU_type_0::IntAlu               3348911     78.20%     78.84% # Type of FU issued
system.cpu.iq.FU_type_0::IntMult                 2023      0.05%     78.89% # Type of FU issued
system.cpu.iq.FU_type_0::IntDiv                 41603      0.97%     79.86% # Type of FU issued
system.cpu.iq.FU_type_0::FloatAdd                4766      0.11%     79.97% # Type of FU issued
system.cpu.iq.FU_type_0::FloatCmp                   0      0.00%     79.97% # Type of FU issued
system.cpu.iq.FU_type_0::FloatCvt                1258      0.03%     80.00% # Type of FU issued
system.cpu.iq.FU_type_0::FloatMult                  0      0.00%     80.00% # Type of FU issued
system.cpu.iq.FU_type_0::FloatMultAcc               0      0.00%     80.00% # Type of FU issued
system.cpu.iq.FU_type_0::FloatDiv                   0      0.00%     80.00% # Type of FU issued
system.cpu.iq.FU_type_0::FloatMisc                  0      0.00%     80.00% # Type of FU issued
system.cpu.iq.FU_type_0::FloatSqrt                  0      0.00%     80.00% # Type of FU issued
system.cpu.iq.FU_type_0::SimdAdd                 7004      0.16%     80.16% # Type of FU issued
system.cpu.iq.FU_type_0::SimdAddAcc                 0      0.00%     80.16% # Type of FU issued
system.cpu.iq.FU_type_0::SimdAlu                16248      0.38%     80.54% # Type of FU issued
system.cpu.iq.FU_type_0::SimdCmp                    0      0.00%     80.54% # Type of FU issued
system.cpu.iq.FU_type_0::SimdCvt                14970      0.35%     80.89% # Type of FU issued
system.cpu.iq.FU_type_0::SimdMisc                8969      0.21%     81.10% # Type of FU issued
system.cpu.iq.FU_type_0::SimdMult                   0      0.00%     81.10% # Type of FU issued
system.cpu.iq.FU_type_0::SimdMultAcc                0      0.00%     81.10% # Type of FU issued
system.cpu.iq.FU_type_0::SimdShift               2408      0.06%     81.16% # Type of FU issued
system.cpu.iq.FU_type_0::SimdShiftAcc               0      0.00%     81.16% # Type of FU issued
system.cpu.iq.FU_type_0::SimdDiv                    0      0.00%     81.16% # Type of FU issued
system.cpu.iq.FU_type_0::SimdSqrt                   0      0.00%     81.16% # Type of FU issued
system.cpu.iq.FU_type_0::SimdFloatAdd               0      0.00%     81.16% # Type of FU issued
system.cpu.iq.FU_type_0::SimdFloatAlu               0      0.00%     81.16% # Type of FU issued
system.cpu.iq.FU_type_0::SimdFloatCmp               0      0.00%     81.16% # Type of FU issued
system.cpu.iq.FU_type_0::SimdFloatCvt               0      0.00%     81.16% # Type of FU issued
system.cpu.iq.FU_type_0::SimdFloatDiv               0      0.00%     81.16% # Type of FU issued
system.cpu.iq.FU_type_0::SimdFloatMisc              0      0.00%     81.16% # Type of FU issued
system.cpu.iq.FU_type_0::SimdFloatMult              0      0.00%     81.16% # Type of FU issued
system.cpu.iq.FU_type_0::SimdFloatMultAcc            0      0.00%     81.16% # Type of FU issued
system.cpu.iq.FU_type_0::SimdFloatSqrt              0      0.00%     81.16% # Type of FU issued
system.cpu.iq.FU_type_0::SimdReduceAdd              0      0.00%     81.16% # Type of FU issued
system.cpu.iq.FU_type_0::SimdReduceAlu              0      0.00%     81.16% # Type of FU issued
system.cpu.iq.FU_type_0::SimdReduceCmp              0      0.00%     81.16% # Type of FU issued
system.cpu.iq.FU_type_0::SimdFloatReduceAdd            0      0.00%     81.16% # Type of FU issued
system.cpu.iq.FU_type_0::SimdFloatReduceCmp            0      0.00%     81.16% # Type of FU issued
system.cpu.iq.FU_type_0::SimdAes                    0      0.00%     81.16% # Type of FU issued
system.cpu.iq.FU_type_0::SimdAesMix                 0      0.00%     81.16% # Type of FU issued
system.cpu.iq.FU_type_0::SimdSha1Hash               0      0.00%     81.16% # Type of FU issued
system.cpu.iq.FU_type_0::SimdSha1Hash2              0      0.00%     81.16% # Type of FU issued
system.cpu.iq.FU_type_0::SimdSha256Hash             0      0.00%     81.16% # Type of FU issued
system.cpu.iq.FU_type_0::SimdSha256Hash2            0      0.00%     81.16% # Type of FU issued
system.cpu.iq.FU_type_0::SimdShaSigma2              0      0.00%     81.16% # Type of FU issued
system.cpu.iq.FU_type_0::SimdShaSigma3              0      0.00%     81.16% # Type of FU issued
system.cpu.iq.FU_type_0::SimdPredAlu                0      0.00%     81.16% # Type of FU issued
system.cpu.iq.FU_type_0::MemRead               576862     13.47%     94.63% # Type of FU issued
system.cpu.iq.FU_type_0::MemWrite              189800      4.43%     99.06% # Type of FU issued
system.cpu.iq.FU_type_0::FloatMemRead           26483      0.62%     99.68% # Type of FU issued
system.cpu.iq.FU_type_0::FloatMemWrite          13818      0.32%    100.00% # Type of FU issued
system.cpu.iq.FU_type_0::IprAccess                  0      0.00%    100.00% # Type of FU issued
system.cpu.iq.FU_type_0::InstPrefetch               0      0.00%    100.00% # Type of FU issued
system.cpu.iq.FU_type_0::total                4282504                       # Type of FU issued
system.cpu.iq.fp_alu_accesses                   97583                       # Number of floating point alu accesses
system.cpu.iq.fp_inst_queue_reads              196622                       # Number of floating instruction queue reads
system.cpu.iq.fp_inst_queue_wakeup_accesses        93780                       # Number of floating instruction queue wakeup accesses
system.cpu.iq.fp_inst_queue_writes             144205                       # Number of floating instruction queue writes
system.cpu.iq.fu_busy_cnt                           0                       # FU busy when requested
system.cpu.iq.fu_busy_rate                          0                       # FU busy rate (busy events/executed inst)
system.cpu.iq.fu_full::No_OpClass                   0                       # attempts to use FU when none available
system.cpu.iq.fu_full::IntAlu                       0                       # attempts to use FU when none available
system.cpu.iq.fu_full::IntMult                      0                       # attempts to use FU when none available
system.cpu.iq.fu_full::IntDiv                       0                       # attempts to use FU when none available
system.cpu.iq.fu_full::FloatAdd                     0                       # attempts to use FU when none available
system.cpu.iq.fu_full::FloatCmp                     0                       # attempts to use FU when none available
system.cpu.iq.fu_full::FloatCvt                     0                       # attempts to use FU when none available
system.cpu.iq.fu_full::FloatMult                    0                       # attempts to use FU when none available
system.cpu.iq.fu_full::FloatMultAcc                 0                       # attempts to use FU when none available
system.cpu.iq.fu_full::FloatDiv                     0                       # attempts to use FU when none available
system.cpu.iq.fu_full::FloatMisc                    0                       # attempts to use FU when none available
system.cpu.iq.fu_full::FloatSqrt                    0                       # attempts to use FU when none available
system.cpu.iq.fu_full::SimdAdd                      0                       # attempts to use FU when none available
system.cpu.iq.fu_full::SimdAddAcc                   0                       # attempts to use FU when none available
system.cpu.iq.fu_full::SimdAlu                      0                       # attempts to use FU when none available
system.cpu.iq.fu_full::SimdCmp                      0                       # attempts to use FU when none available
system.cpu.iq.fu_full::SimdCvt                      0                       # attempts to use FU when none available
system.cpu.iq.fu_full::SimdMisc                     0                       # attempts to use FU when none available
system.cpu.iq.fu_full::SimdMult                     0                       # attempts to use FU when none available
system.cpu.iq.fu_full::SimdMultAcc                  0                       # attempts to use FU when none available
system.cpu.iq.fu_full::SimdShift                    0                       # attempts to use FU when none available
system.cpu.iq.fu_full::SimdShiftAcc                 0                       # attempts to use FU when none available
system.cpu.iq.fu_full::SimdDiv                      0                       # attempts to use FU when none available
system.cpu.iq.fu_full::SimdSqrt                     0                       # attempts to use FU when none available
system.cpu.iq.fu_full::SimdFloatAdd                 0                       # attempts to use FU when none available
system.cpu.iq.fu_full::SimdFloatAlu                 0                       # attempts to use FU when none available
system.cpu.iq.fu_full::SimdFloatCmp                 0                       # attempts to use FU when none available
system.cpu.iq.fu_full::SimdFloatCvt                 0                       # attempts to use FU when none available
system.cpu.iq.fu_full::SimdFloatDiv                 0                       # attempts to use FU when none available
system.cpu.iq.fu_full::SimdFloatMisc                0                       # attempts to use FU when none available
system.cpu.iq.fu_full::SimdFloatMult                0                       # attempts to use FU when none available
system.cpu.iq.fu_full::SimdFloatMultAcc             0                       # attempts to use FU when none available
system.cpu.iq.fu_full::SimdFloatSqrt                0                       # attempts to use FU when none available
system.cpu.iq.fu_full::SimdReduceAdd                0                       # attempts to use FU when none available
system.cpu.iq.fu_full::SimdReduceAlu                0                       # attempts to use FU when none available
system.cpu.iq.fu_full::SimdReduceCmp                0                       # attempts to use FU when none available
system.cpu.iq.fu_full::SimdFloatReduceAdd            0                       # attempts to use FU when none available
system.cpu.iq.fu_full::SimdFloatReduceCmp            0                       # attempts to use FU when none available
system.cpu.iq.fu_full::SimdAes                      0                       # attempts to use FU when none available
system.cpu.iq.fu_full::SimdAesMix                   0                       # attempts to use FU when none available
system.cpu.iq.fu_full::SimdSha1Hash                 0                       # attempts to use FU when none available
system.cpu.iq.fu_full::SimdSha1Hash2                0                       # attempts to use FU when none available
system.cpu.iq.fu_full::SimdSha256Hash               0                       # attempts to use FU when none available
system.cpu.iq.fu_full::SimdSha256Hash2              0                       # attempts to use FU when none available
system.cpu.iq.fu_full::SimdShaSigma2                0                       # attempts to use FU when none available
system.cpu.iq.fu_full::SimdShaSigma3                0                       # attempts to use FU when none available
system.cpu.iq.fu_full::SimdPredAlu                  0                       # attempts to use FU when none available
system.cpu.iq.fu_full::MemRead                      0                       # attempts to use FU when none available
system.cpu.iq.fu_full::MemWrite                     0                       # attempts to use FU when none available
system.cpu.iq.fu_full::FloatMemRead                 0                       # attempts to use FU when none available
system.cpu.iq.fu_full::FloatMemWrite                0                       # attempts to use FU when none available
system.cpu.iq.fu_full::IprAccess                    0                       # attempts to use FU when none available
system.cpu.iq.fu_full::InstPrefetch                 0                       # attempts to use FU when none available
system.cpu.iq.int_alu_accesses                4157540                       # Number of integer alu accesses
system.cpu.iq.int_inst_queue_reads           11026717                       # Number of integer instruction queue reads
system.cpu.iq.int_inst_queue_wakeup_accesses      4128975                       # Number of integer instruction queue wakeup accesses
system.cpu.iq.int_inst_queue_writes           5380748                       # Number of integer instruction queue writes
system.cpu.iq.iqInstsAdded                    4609231                       # Number of instructions added to the IQ (excludes non-spec)
system.cpu.iq.iqInstsIssued                   4282504                       # Number of instructions issued
system.cpu.iq.iqNonSpecInstsAdded                1139                       # Number of non-speculative instructions added to the IQ
system.cpu.iq.iqSquashedInstsExamined          914500                       # Number of squashed instructions iterated over during squash; mainly for profiling
system.cpu.iq.iqSquashedInstsIssued             19499                       # Number of squashed instructions issued
system.cpu.iq.iqSquashedNonSpecRemoved            397                       # Number of squashed non-spec instructions that were removed
system.cpu.iq.iqSquashedOperandsExamined      1356184                       # Number of squashed operands that are examined and possibly removed from graph
system.cpu.iq.issued_per_cycle::samples       2638835                       # Number of insts issued each cycle
system.cpu.iq.issued_per_cycle::mean         1.622877                       # Number of insts issued each cycle
system.cpu.iq.issued_per_cycle::stdev        1.668291                       # Number of insts issued each cycle
system.cpu.iq.issued_per_cycle::underflows            0      0.00%      0.00% # Number of insts issued each cycle
system.cpu.iq.issued_per_cycle::0             1189777     45.09%     45.09% # Number of insts issued each cycle
system.cpu.iq.issued_per_cycle::1              181117      6.86%     51.95% # Number of insts issued each cycle
system.cpu.iq.issued_per_cycle::2              309415     11.73%     63.68% # Number of insts issued each cycle
system.cpu.iq.issued_per_cycle::3              351547     13.32%     77.00% # Number of insts issued each cycle
system.cpu.iq.issued_per_cycle::4              606979     23.00%    100.00% # Number of insts issued each cycle
system.cpu.iq.issued_per_cycle::overflows            0      0.00%    100.00% # Number of insts issued each cycle
system.cpu.iq.issued_per_cycle::min_value            0                       # Number of insts issued each cycle
system.cpu.iq.issued_per_cycle::max_value            4                       # Number of insts issued each cycle
system.cpu.iq.issued_per_cycle::total         2638835                       # Number of insts issued each cycle
system.cpu.iq.rate                           1.528573                       # Inst issue rate
system.cpu.iq.vec_alu_accesses                      0                       # Number of vector alu accesses
system.cpu.iq.vec_inst_queue_reads                  0                       # Number of vector instruction queue reads
system.cpu.iq.vec_inst_queue_wakeup_accesses            0                       # Number of vector instruction queue wakeup accesses
system.cpu.iq.vec_inst_queue_writes                 0                       # Number of vector instruction queue writes
system.cpu.itb.rdAccesses                           0                       # TLB accesses on read requests
system.cpu.itb.rdMisses                             0                       # TLB misses on read requests
system.cpu.itb.wrAccesses                      251745                       # TLB accesses on write requests
system.cpu.itb.wrMisses                           369                       # TLB misses on write requests
system.cpu.memDep0.conflictingLoads             13817                       # Number of conflicting loads.
system.cpu.memDep0.conflictingStores             4685                       # Number of conflicting stores.
system.cpu.memDep0.insertedLoads               624461                       # Number of loads inserted to the mem dependence unit.
system.cpu.memDep0.insertedStores              212124                       # Number of stores inserted to the mem dependence unit.
system.cpu.misc_regfile_reads                 1604917                       # number of misc regfile reads
system.cpu.misc_regfile_writes                    684                       # number of misc regfile writes
system.cpu.numCycles                          2801636                       # number of cpu cycles simulated
system.cpu.numWorkItemsCompleted                    0                       # number of work items this cpu completed
system.cpu.numWorkItemsStarted                      0                       # number of work items this cpu started
system.cpu.process.numSyscalls                     57                       # Number of system calls
system.cpu.rename.BlockCycles                  853032                       # Number of cycles rename is blocking
system.cpu.rename.CommittedMaps               5041147                       # Number of HB maps that are committed
system.cpu.rename.FullRegisterEvents              340                       # Number of times there has been no free registers
system.cpu.rename.IQFullEvents                  46991                       # Number of times rename has blocked due to IQ full
system.cpu.rename.IdleCycles                   358983                       # Number of cycles rename is idle
system.cpu.rename.LQFullEvents                  13365                       # Number of times rename has blocked due to LQ full
system.cpu.rename.ROBFullEvents                  4557                       # Number of times rename has blocked due to ROB full
system.cpu.rename.RenameLookups              12422615                       # Number of register rename lookups that rename has made
system.cpu.rename.RenamedInsts                4758893                       # Number of instructions processed by rename
system.cpu.rename.RenamedOperands             6476022                       # Number of destination operands rename has renamed
system.cpu.rename.RunCycles                   1208286                       # Number of cycles rename is running
system.cpu.rename.SQFullEvents                  75018                       # Number of times rename has blocked due to SQ full
system.cpu.rename.SquashCycles                  25584                       # Number of cycles rename is squashing
system.cpu.rename.UnblockCycles                173073                       # Number of cycles rename is unblocking
system.cpu.rename.UndoneMaps                  1434852                       # Number of HB maps that are undone due to squashing
system.cpu.rename.fp_rename_lookups            170914                       # Number of floating rename lookups
system.cpu.rename.int_rename_lookups          7537797                       # Number of integer rename lookups
system.cpu.rename.serializeStallCycles          19877                       # count of cycles rename stalled for serializing inst
system.cpu.rename.serializingInsts                883                       # count of serializing insts renamed
system.cpu.rename.skidInsts                    208166                       # count of insts added to the skid buffer
system.cpu.rename.tempSerializingInsts            936                       # count of temporary serializing insts renamed
system.cpu.rob.rob_reads                      6387811                       # The number of ROB reads
system.cpu.rob.rob_writes                     9471858                       # The number of ROB writes
system.cpu.timesIdled                            1615                       # Number of times that the entire CPU went into an idle state and unscheduled itself
system.l2bus.snoop_filter.hit_multi_requests           11                       # Number of requests hitting in the snoop filter with multiple (>1) holders of the requested data.
system.l2bus.snoop_filter.hit_multi_snoops            0                       # Number of snoops hitting in the snoop filter with multiple (>1) holders of the requested data.
system.l2bus.snoop_filter.hit_single_requests        18449                       # Number of requests hitting in the snoop filter with a single holder of the requested data.
system.l2bus.snoop_filter.hit_single_snoops          430                       # Number of snoops hitting in the snoop filter with a single holder of the requested data.
system.l2bus.snoop_filter.tot_requests          38176                       # Total number of requests made to the snoop filter.
system.l2bus.snoop_filter.tot_snoops              430                       # Total number of snoops made to the snoop filter.
system.l2cache.prefetcher.num_hwpf_issued          678                       # number of hwpf issued
system.l2cache.prefetcher.pfBufferHit               0                       # number of redundant prefetches already in prefetch queue
system.l2cache.prefetcher.pfIdentified            679                       # number of prefetch candidates identified
system.l2cache.prefetcher.pfInCache                 0                       # number of redundant prefetches already in cache/mshr dropped
system.l2cache.prefetcher.pfRemovedFull             0                       # number of prefetches dropped due to prefetch queue size
system.l2cache.prefetcher.pfSpanPage              105                       # number of prefetches that crossed the page
system.membus.snoop_filter.hit_multi_requests            0                       # Number of requests hitting in the snoop filter with multiple (>1) holders of the requested data.
system.membus.snoop_filter.hit_multi_snoops            0                       # Number of snoops hitting in the snoop filter with multiple (>1) holders of the requested data.
system.membus.snoop_filter.hit_single_requests         9465                       # Number of requests hitting in the snoop filter with a single holder of the requested data.
system.membus.snoop_filter.hit_single_snoops            0                       # Number of snoops hitting in the snoop filter with a single holder of the requested data.
system.membus.snoop_filter.tot_requests         23051                       # Total number of requests made to the snoop filter.
system.membus.snoop_filter.tot_snoops               0                       # Total number of snoops made to the snoop filter.
system.membus.pwrStateResidencyTicks::UNDEFINED   1120654000                       # Cumulative time (in ticks) in various power states
system.membus.trans_dist::ReadResp              12224                       # Transaction distribution
system.membus.trans_dist::WritebackDirty         1338                       # Transaction distribution
system.membus.trans_dist::CleanEvict             8127                       # Transaction distribution
system.membus.trans_dist::ReadExReq              1362                       # Transaction distribution
system.membus.trans_dist::ReadExResp             1362                       # Transaction distribution
system.membus.trans_dist::ReadSharedReq         12224                       # Transaction distribution
system.membus.pkt_count_system.l2cache.mem_side::system.mem_ctrl.port        36637                       # Packet count per connected master and slave (bytes)
system.membus.pkt_count_system.l2cache.mem_side::total        36637                       # Packet count per connected master and slave (bytes)
system.membus.pkt_count::total                  36637                       # Packet count per connected master and slave (bytes)
system.membus.pkt_size_system.l2cache.mem_side::system.mem_ctrl.port       955136                       # Cumulative packet size per connected master and slave (bytes)
system.membus.pkt_size_system.l2cache.mem_side::total       955136                       # Cumulative packet size per connected master and slave (bytes)
system.membus.pkt_size::total                  955136                       # Cumulative packet size per connected master and slave (bytes)
system.membus.snoops                                0                       # Total snoops (count)
system.membus.snoopTraffic                          0                       # Total snoop traffic (bytes)
system.membus.snoop_fanout::samples             13586                       # Request fanout histogram
system.membus.snoop_fanout::mean                    0                       # Request fanout histogram
system.membus.snoop_fanout::stdev                   0                       # Request fanout histogram
system.membus.snoop_fanout::underflows              0      0.00%      0.00% # Request fanout histogram
system.membus.snoop_fanout::0                   13586    100.00%    100.00% # Request fanout histogram
system.membus.snoop_fanout::1                       0      0.00%    100.00% # Request fanout histogram
system.membus.snoop_fanout::overflows               0      0.00%    100.00% # Request fanout histogram
system.membus.snoop_fanout::min_value               0                       # Request fanout histogram
system.membus.snoop_fanout::max_value               0                       # Request fanout histogram
system.membus.snoop_fanout::total               13586                       # Request fanout histogram
system.membus.reqLayer2.occupancy            11385602                       # Layer occupancy (ticks)
system.membus.reqLayer2.utilization               1.0                       # Layer utilization (%)
system.membus.respLayer0.occupancy           29455098                       # Layer occupancy (ticks)
system.membus.respLayer0.utilization              2.6                       # Layer utilization (%)
system.l2bus.pwrStateResidencyTicks::UNDEFINED   1120654000                       # Cumulative time (in ticks) in various power states
system.l2bus.trans_dist::ReadResp               17626                       # Transaction distribution
system.l2bus.trans_dist::WritebackDirty          4114                       # Transaction distribution
system.l2bus.trans_dist::CleanEvict             23883                       # Transaction distribution
system.l2bus.trans_dist::HardPFReq                975                       # Transaction distribution
system.l2bus.trans_dist::ReadExReq               2102                       # Transaction distribution
system.l2bus.trans_dist::ReadExResp              2102                       # Transaction distribution
system.l2bus.trans_dist::ReadSharedReq          17626                       # Transaction distribution
system.l2bus.pkt_count_system.cpu.icache.mem_side::system.l2cache.cpu_side         8344                       # Packet count per connected master and slave (bytes)
system.l2bus.pkt_count_system.cpu.dcache.mem_side::system.l2cache.cpu_side        49557                       # Packet count per connected master and slave (bytes)
system.l2bus.pkt_count::total                   57901                       # Packet count per connected master and slave (bytes)
system.l2bus.pkt_size_system.cpu.icache.mem_side::system.l2cache.cpu_side       183552                       # Cumulative packet size per connected master and slave (bytes)
system.l2bus.pkt_size_system.cpu.dcache.mem_side::system.l2cache.cpu_side      1256512                       # Cumulative packet size per connected master and slave (bytes)
system.l2bus.pkt_size::total                  1440064                       # Cumulative packet size per connected master and slave (bytes)
system.l2bus.snoops                             10527                       # Total snoops (count)
system.l2bus.snoopTraffic                       85824                       # Total snoop traffic (bytes)
system.l2bus.snoop_fanout::samples              30252                       # Request fanout histogram
system.l2bus.snoop_fanout::mean              0.014611                       # Request fanout histogram
system.l2bus.snoop_fanout::stdev             0.119990                       # Request fanout histogram
system.l2bus.snoop_fanout::underflows               0      0.00%      0.00% # Request fanout histogram
system.l2bus.snoop_fanout::0                    29810     98.54%     98.54% # Request fanout histogram
system.l2bus.snoop_fanout::1                      442      1.46%    100.00% # Request fanout histogram
system.l2bus.snoop_fanout::2                        0      0.00%    100.00% # Request fanout histogram
system.l2bus.snoop_fanout::overflows                0      0.00%    100.00% # Request fanout histogram
system.l2bus.snoop_fanout::min_value                0                       # Request fanout histogram
system.l2bus.snoop_fanout::max_value                1                       # Request fanout histogram
system.l2bus.snoop_fanout::total                30252                       # Request fanout histogram
system.l2bus.respLayer1.occupancy            20233599                       # Layer occupancy (ticks)
system.l2bus.respLayer1.utilization               1.8                       # Layer utilization (%)
system.l2bus.reqLayer0.occupancy             18865311                       # Layer occupancy (ticks)
system.l2bus.reqLayer0.utilization                1.7                       # Layer utilization (%)
system.l2bus.respLayer0.occupancy             3440799                       # Layer occupancy (ticks)
system.l2bus.respLayer0.utilization               0.3                       # Layer utilization (%)
system.clk_domain.clock                           400                       # Clock period in ticks
system.clk_domain.voltage_domain.voltage            1                       # Voltage in Volts
system.cpu.pwrStateResidencyTicks::ON      1120654000                       # Cumulative time (in ticks) in various power states
system.cpu.icache.pwrStateResidencyTicks::UNDEFINED   1120654000                       # Cumulative time (in ticks) in various power states
system.cpu.icache.demand_hits::.cpu.inst       248033                       # number of demand (read+write) hits
system.cpu.icache.demand_hits::total           248033                       # number of demand (read+write) hits
system.cpu.icache.overall_hits::.cpu.inst       248033                       # number of overall hits
system.cpu.icache.overall_hits::total          248033                       # number of overall hits
system.cpu.icache.demand_misses::.cpu.inst         3592                       # number of demand (read+write) misses
system.cpu.icache.demand_misses::total           3592                       # number of demand (read+write) misses
system.cpu.icache.overall_misses::.cpu.inst         3592                       # number of overall misses
system.cpu.icache.overall_misses::total          3592                       # number of overall misses
system.cpu.icache.demand_miss_latency::.cpu.inst    178631600                       # number of demand (read+write) miss cycles
system.cpu.icache.demand_miss_latency::total    178631600                       # number of demand (read+write) miss cycles
system.cpu.icache.overall_miss_latency::.cpu.inst    178631600                       # number of overall miss cycles
system.cpu.icache.overall_miss_latency::total    178631600                       # number of overall miss cycles
system.cpu.icache.demand_accesses::.cpu.inst       251625                       # number of demand (read+write) accesses
system.cpu.icache.demand_accesses::total       251625                       # number of demand (read+write) accesses
system.cpu.icache.overall_accesses::.cpu.inst       251625                       # number of overall (read+write) accesses
system.cpu.icache.overall_accesses::total       251625                       # number of overall (read+write) accesses
system.cpu.icache.demand_miss_rate::.cpu.inst     0.014275                       # miss rate for demand accesses
system.cpu.icache.demand_miss_rate::total     0.014275                       # miss rate for demand accesses
system.cpu.icache.overall_miss_rate::.cpu.inst     0.014275                       # miss rate for overall accesses
system.cpu.icache.overall_miss_rate::total     0.014275                       # miss rate for overall accesses
system.cpu.icache.demand_avg_miss_latency::.cpu.inst 49730.400891                       # average overall miss latency
system.cpu.icache.demand_avg_miss_latency::total 49730.400891                       # average overall miss latency
system.cpu.icache.overall_avg_miss_latency::.cpu.inst 49730.400891                       # average overall miss latency
system.cpu.icache.overall_avg_miss_latency::total 49730.400891                       # average overall miss latency
system.cpu.icache.blocked_cycles::no_mshrs          512                       # number of cycles access was blocked
system.cpu.icache.blocked_cycles::no_targets            0                       # number of cycles access was blocked
system.cpu.icache.blocked::no_mshrs                 6                       # number of cycles access was blocked
system.cpu.icache.blocked::no_targets               0                       # number of cycles access was blocked
system.cpu.icache.avg_blocked_cycles::no_mshrs    85.333333                       # average number of cycles each access was blocked
system.cpu.icache.avg_blocked_cycles::no_targets          nan                       # average number of cycles each access was blocked
system.cpu.icache.writebacks::.writebacks            2                       # number of writebacks
system.cpu.icache.writebacks::total                 2                       # number of writebacks
system.cpu.icache.demand_mshr_hits::.cpu.inst          725                       # number of demand (read+write) MSHR hits
system.cpu.icache.demand_mshr_hits::total          725                       # number of demand (read+write) MSHR hits
system.cpu.icache.overall_mshr_hits::.cpu.inst          725                       # number of overall MSHR hits
system.cpu.icache.overall_mshr_hits::total          725                       # number of overall MSHR hits
system.cpu.icache.demand_mshr_misses::.cpu.inst         2867                       # number of demand (read+write) MSHR misses
system.cpu.icache.demand_mshr_misses::total         2867                       # number of demand (read+write) MSHR misses
system.cpu.icache.overall_mshr_misses::.cpu.inst         2867                       # number of overall MSHR misses
system.cpu.icache.overall_mshr_misses::total         2867                       # number of overall MSHR misses
system.cpu.icache.demand_mshr_miss_latency::.cpu.inst    143040000                       # number of demand (read+write) MSHR miss cycles
system.cpu.icache.demand_mshr_miss_latency::total    143040000                       # number of demand (read+write) MSHR miss cycles
system.cpu.icache.overall_mshr_miss_latency::.cpu.inst    143040000                       # number of overall MSHR miss cycles
system.cpu.icache.overall_mshr_miss_latency::total    143040000                       # number of overall MSHR miss cycles
system.cpu.icache.demand_mshr_miss_rate::.cpu.inst     0.011394                       # mshr miss rate for demand accesses
system.cpu.icache.demand_mshr_miss_rate::total     0.011394                       # mshr miss rate for demand accesses
system.cpu.icache.overall_mshr_miss_rate::.cpu.inst     0.011394                       # mshr miss rate for overall accesses
system.cpu.icache.overall_mshr_miss_rate::total     0.011394                       # mshr miss rate for overall accesses
system.cpu.icache.demand_avg_mshr_miss_latency::.cpu.inst 49891.873038                       # average overall mshr miss latency
system.cpu.icache.demand_avg_mshr_miss_latency::total 49891.873038                       # average overall mshr miss latency
system.cpu.icache.overall_avg_mshr_miss_latency::.cpu.inst 49891.873038                       # average overall mshr miss latency
system.cpu.icache.overall_avg_mshr_miss_latency::total 49891.873038                       # average overall mshr miss latency
system.cpu.icache.replacements                   2611                       # number of replacements
system.cpu.icache.ReadReq_hits::.cpu.inst       248033                       # number of ReadReq hits
system.cpu.icache.ReadReq_hits::total          248033                       # number of ReadReq hits
system.cpu.icache.ReadReq_misses::.cpu.inst         3592                       # number of ReadReq misses
system.cpu.icache.ReadReq_misses::total          3592                       # number of ReadReq misses
system.cpu.icache.ReadReq_miss_latency::.cpu.inst    178631600                       # number of ReadReq miss cycles
system.cpu.icache.ReadReq_miss_latency::total    178631600                       # number of ReadReq miss cycles
system.cpu.icache.ReadReq_accesses::.cpu.inst       251625                       # number of ReadReq accesses(hits+misses)
system.cpu.icache.ReadReq_accesses::total       251625                       # number of ReadReq accesses(hits+misses)
system.cpu.icache.ReadReq_miss_rate::.cpu.inst     0.014275                       # miss rate for ReadReq accesses
system.cpu.icache.ReadReq_miss_rate::total     0.014275                       # miss rate for ReadReq accesses
system.cpu.icache.ReadReq_avg_miss_latency::.cpu.inst 49730.400891                       # average ReadReq miss latency
system.cpu.icache.ReadReq_avg_miss_latency::total 49730.400891                       # average ReadReq miss latency
system.cpu.icache.ReadReq_mshr_hits::.cpu.inst          725                       # number of ReadReq MSHR hits
system.cpu.icache.ReadReq_mshr_hits::total          725                       # number of ReadReq MSHR hits
system.cpu.icache.ReadReq_mshr_misses::.cpu.inst         2867                       # number of ReadReq MSHR misses
system.cpu.icache.ReadReq_mshr_misses::total         2867                       # number of ReadReq MSHR misses
system.cpu.icache.ReadReq_mshr_miss_latency::.cpu.inst    143040000                       # number of ReadReq MSHR miss cycles
system.cpu.icache.ReadReq_mshr_miss_latency::total    143040000                       # number of ReadReq MSHR miss cycles
system.cpu.icache.ReadReq_mshr_miss_rate::.cpu.inst     0.011394                       # mshr miss rate for ReadReq accesses
system.cpu.icache.ReadReq_mshr_miss_rate::total     0.011394                       # mshr miss rate for ReadReq accesses
system.cpu.icache.ReadReq_avg_mshr_miss_latency::.cpu.inst 49891.873038                       # average ReadReq mshr miss latency
system.cpu.icache.ReadReq_avg_mshr_miss_latency::total 49891.873038                       # average ReadReq mshr miss latency
system.cpu.icache.prefetcher.pwrStateResidencyTicks::UNDEFINED   1120654000                       # Cumulative time (in ticks) in various power states
system.cpu.icache.tags.pwrStateResidencyTicks::UNDEFINED   1120654000                       # Cumulative time (in ticks) in various power states
system.cpu.icache.tags.tagsinuse           253.520855                       # Cycle average of tags in use
system.cpu.icache.tags.total_refs              234088                       # Total number of references to valid blocks.
system.cpu.icache.tags.sampled_refs              2611                       # Sample count of references to valid blocks.
system.cpu.icache.tags.avg_refs             89.654538                       # Average number of references to valid blocks.
system.cpu.icache.tags.warmup_cycle             66400                       # Cycle when the warmup percentage was hit.
system.cpu.icache.tags.occ_blocks::.cpu.inst   253.520855                       # Average occupied blocks per requestor
system.cpu.icache.tags.occ_percent::.cpu.inst     0.990316                       # Average percentage of cache occupancy
system.cpu.icache.tags.occ_percent::total     0.990316                       # Average percentage of cache occupancy
system.cpu.icache.tags.occ_task_id_blocks::1024          256                       # Occupied blocks per task id
system.cpu.icache.tags.age_task_id_blocks_1024::0           99                       # Occupied blocks per task id
system.cpu.icache.tags.age_task_id_blocks_1024::1          129                       # Occupied blocks per task id
system.cpu.icache.tags.age_task_id_blocks_1024::2           25                       # Occupied blocks per task id
system.cpu.icache.tags.age_task_id_blocks_1024::3            3                       # Occupied blocks per task id
system.cpu.icache.tags.occ_task_id_percent::1024            1                       # Percentage of cache occupancy per task id
system.cpu.icache.tags.tag_accesses            506117                       # Number of tag accesses
system.cpu.icache.tags.data_accesses           506117                       # Number of data accesses
system.cpu.dtb.walker.pwrStateResidencyTicks::UNDEFINED   1120654000                       # Cumulative time (in ticks) in various power states
system.cpu.interrupts.clk_domain.clock           6400                       # Clock period in ticks
system.cpu.itb.walker.pwrStateResidencyTicks::UNDEFINED   1120654000                       # Cumulative time (in ticks) in various power states
system.cpu.dcache.pwrStateResidencyTicks::UNDEFINED   1120654000                       # Cumulative time (in ticks) in various power states
system.cpu.dcache.demand_hits::.cpu.data       693063                       # number of demand (read+write) hits
system.cpu.dcache.demand_hits::total           693063                       # number of demand (read+write) hits
system.cpu.dcache.overall_hits::.cpu.data       693063                       # number of overall hits
system.cpu.dcache.overall_hits::total          693063                       # number of overall hits
system.cpu.dcache.demand_misses::.cpu.data        35479                       # number of demand (read+write) misses
system.cpu.dcache.demand_misses::total          35479                       # number of demand (read+write) misses
system.cpu.dcache.overall_misses::.cpu.data        35479                       # number of overall misses
system.cpu.dcache.overall_misses::total         35479                       # number of overall misses
system.cpu.dcache.demand_miss_latency::.cpu.data   1738066400                       # number of demand (read+write) miss cycles
system.cpu.dcache.demand_miss_latency::total   1738066400                       # number of demand (read+write) miss cycles
system.cpu.dcache.overall_miss_latency::.cpu.data   1738066400                       # number of overall miss cycles
system.cpu.dcache.overall_miss_latency::total   1738066400                       # number of overall miss cycles
system.cpu.dcache.demand_accesses::.cpu.data       728542                       # number of demand (read+write) accesses
system.cpu.dcache.demand_accesses::total       728542                       # number of demand (read+write) accesses
system.cpu.dcache.overall_accesses::.cpu.data       728542                       # number of overall (read+write) accesses
system.cpu.dcache.overall_accesses::total       728542                       # number of overall (read+write) accesses
system.cpu.dcache.demand_miss_rate::.cpu.data     0.048699                       # miss rate for demand accesses
system.cpu.dcache.demand_miss_rate::total     0.048699                       # miss rate for demand accesses
system.cpu.dcache.overall_miss_rate::.cpu.data     0.048699                       # miss rate for overall accesses
system.cpu.dcache.overall_miss_rate::total     0.048699                       # miss rate for overall accesses
system.cpu.dcache.demand_avg_miss_latency::.cpu.data 48988.596071                       # average overall miss latency
system.cpu.dcache.demand_avg_miss_latency::total 48988.596071                       # average overall miss latency
system.cpu.dcache.overall_avg_miss_latency::.cpu.data 48988.596071                       # average overall miss latency
system.cpu.dcache.overall_avg_miss_latency::total 48988.596071                       # average overall miss latency
system.cpu.dcache.blocked_cycles::no_mshrs        27499                       # number of cycles access was blocked
system.cpu.dcache.blocked_cycles::no_targets          333                       # number of cycles access was blocked
system.cpu.dcache.blocked::no_mshrs               743                       # number of cycles access was blocked
system.cpu.dcache.blocked::no_targets               2                       # number of cycles access was blocked
system.cpu.dcache.avg_blocked_cycles::no_mshrs    37.010767                       # average number of cycles each access was blocked
system.cpu.dcache.avg_blocked_cycles::no_targets   166.500000                       # average number of cycles each access was blocked
system.cpu.dcache.unused_prefetches              1756                       # number of HardPF blocks evicted w/o reference
system.cpu.dcache.writebacks::.writebacks         2774                       # number of writebacks
system.cpu.dcache.writebacks::total              2774                       # number of writebacks
system.cpu.dcache.demand_mshr_hits::.cpu.data        22791                       # number of demand (read+write) MSHR hits
system.cpu.dcache.demand_mshr_hits::total        22791                       # number of demand (read+write) MSHR hits
system.cpu.dcache.overall_mshr_hits::.cpu.data        22791                       # number of overall MSHR hits
system.cpu.dcache.overall_mshr_hits::total        22791                       # number of overall MSHR hits
system.cpu.dcache.demand_mshr_misses::.cpu.data        12688                       # number of demand (read+write) MSHR misses
system.cpu.dcache.demand_mshr_misses::total        12688                       # number of demand (read+write) MSHR misses
system.cpu.dcache.overall_mshr_misses::.cpu.data        12688                       # number of overall MSHR misses
system.cpu.dcache.overall_mshr_misses::.cpu.dcache.prefetcher         4173                       # number of overall MSHR misses
system.cpu.dcache.overall_mshr_misses::total        16861                       # number of overall MSHR misses
system.cpu.dcache.demand_mshr_miss_latency::.cpu.data    585300800                       # number of demand (read+write) MSHR miss cycles
system.cpu.dcache.demand_mshr_miss_latency::total    585300800                       # number of demand (read+write) MSHR miss cycles
system.cpu.dcache.overall_mshr_miss_latency::.cpu.data    585300800                       # number of overall MSHR miss cycles
system.cpu.dcache.overall_mshr_miss_latency::.cpu.dcache.prefetcher    242144006                       # number of overall MSHR miss cycles
system.cpu.dcache.overall_mshr_miss_latency::total    827444806                       # number of overall MSHR miss cycles
system.cpu.dcache.demand_mshr_miss_rate::.cpu.data     0.017416                       # mshr miss rate for demand accesses
system.cpu.dcache.demand_mshr_miss_rate::total     0.017416                       # mshr miss rate for demand accesses
system.cpu.dcache.overall_mshr_miss_rate::.cpu.data     0.017416                       # mshr miss rate for overall accesses
system.cpu.dcache.overall_mshr_miss_rate::.cpu.dcache.prefetcher          inf                       # mshr miss rate for overall accesses
system.cpu.dcache.overall_mshr_miss_rate::total     0.023143                       # mshr miss rate for overall accesses
system.cpu.dcache.demand_avg_mshr_miss_latency::.cpu.data 46130.264817                       # average overall mshr miss latency
system.cpu.dcache.demand_avg_mshr_miss_latency::total 46130.264817                       # average overall mshr miss latency
system.cpu.dcache.overall_avg_mshr_miss_latency::.cpu.data 46130.264817                       # average overall mshr miss latency
system.cpu.dcache.overall_avg_mshr_miss_latency::.cpu.dcache.prefetcher 58026.361371                       # average overall mshr miss latency
system.cpu.dcache.overall_avg_mshr_miss_latency::total 49074.479924                       # average overall mshr miss latency
system.cpu.dcache.replacements                  15837                       # number of replacements
system.cpu.dcache.ReadReq_hits::.cpu.data       515115                       # number of ReadReq hits
system.cpu.dcache.ReadReq_hits::total          515115                       # number of ReadReq hits
system.cpu.dcache.ReadReq_misses::.cpu.data        33338                       # number of ReadReq misses
system.cpu.dcache.ReadReq_misses::total         33338                       # number of ReadReq misses
system.cpu.dcache.ReadReq_miss_latency::.cpu.data   1632179600                       # number of ReadReq miss cycles
system.cpu.dcache.ReadReq_miss_latency::total   1632179600                       # number of ReadReq miss cycles
system.cpu.dcache.ReadReq_accesses::.cpu.data       548453                       # number of ReadReq accesses(hits+misses)
system.cpu.dcache.ReadReq_accesses::total       548453                       # number of ReadReq accesses(hits+misses)
system.cpu.dcache.ReadReq_miss_rate::.cpu.data     0.060786                       # miss rate for ReadReq accesses
system.cpu.dcache.ReadReq_miss_rate::total     0.060786                       # miss rate for ReadReq accesses
system.cpu.dcache.ReadReq_avg_miss_latency::.cpu.data 48958.533805                       # average ReadReq miss latency
system.cpu.dcache.ReadReq_avg_miss_latency::total 48958.533805                       # average ReadReq miss latency
system.cpu.dcache.ReadReq_mshr_hits::.cpu.data        22752                       # number of ReadReq MSHR hits
system.cpu.dcache.ReadReq_mshr_hits::total        22752                       # number of ReadReq MSHR hits
system.cpu.dcache.ReadReq_mshr_misses::.cpu.data        10586                       # number of ReadReq MSHR misses
system.cpu.dcache.ReadReq_mshr_misses::total        10586                       # number of ReadReq MSHR misses
system.cpu.dcache.ReadReq_mshr_miss_latency::.cpu.data    482316800                       # number of ReadReq MSHR miss cycles
system.cpu.dcache.ReadReq_mshr_miss_latency::total    482316800                       # number of ReadReq MSHR miss cycles
system.cpu.dcache.ReadReq_mshr_miss_rate::.cpu.data     0.019302                       # mshr miss rate for ReadReq accesses
system.cpu.dcache.ReadReq_mshr_miss_rate::total     0.019302                       # mshr miss rate for ReadReq accesses
system.cpu.dcache.ReadReq_avg_mshr_miss_latency::.cpu.data 45561.760816                       # average ReadReq mshr miss latency
system.cpu.dcache.ReadReq_avg_mshr_miss_latency::total 45561.760816                       # average ReadReq mshr miss latency
system.cpu.dcache.WriteReq_hits::.cpu.data       177948                       # number of WriteReq hits
system.cpu.dcache.WriteReq_hits::total         177948                       # number of WriteReq hits
system.cpu.dcache.WriteReq_misses::.cpu.data         2141                       # number of WriteReq misses
system.cpu.dcache.WriteReq_misses::total         2141                       # number of WriteReq misses
system.cpu.dcache.WriteReq_miss_latency::.cpu.data    105886800                       # number of WriteReq miss cycles
system.cpu.dcache.WriteReq_miss_latency::total    105886800                       # number of WriteReq miss cycles
system.cpu.dcache.WriteReq_accesses::.cpu.data       180089                       # number of WriteReq accesses(hits+misses)
system.cpu.dcache.WriteReq_accesses::total       180089                       # number of WriteReq accesses(hits+misses)
system.cpu.dcache.WriteReq_miss_rate::.cpu.data     0.011889                       # miss rate for WriteReq accesses
system.cpu.dcache.WriteReq_miss_rate::total     0.011889                       # miss rate for WriteReq accesses
system.cpu.dcache.WriteReq_avg_miss_latency::.cpu.data 49456.702475                       # average WriteReq miss latency
system.cpu.dcache.WriteReq_avg_miss_latency::total 49456.702475                       # average WriteReq miss latency
system.cpu.dcache.WriteReq_mshr_hits::.cpu.data           39                       # number of WriteReq MSHR hits
system.cpu.dcache.WriteReq_mshr_hits::total           39                       # number of WriteReq MSHR hits
system.cpu.dcache.WriteReq_mshr_misses::.cpu.data         2102                       # number of WriteReq MSHR misses
[...]
system.l2cache.demand_mshr_misses::.cpu.data          163                       # number of demand (read+write) MSHR misses
system.l2cache.demand_mshr_misses::.cpu.dcache.prefetcher           37                       # number of demand (read+write) MSHR misses
system.l2cache.demand_mshr_misses::total          460                       # number of demand (read+write) MSHR misses
system.l2cache.overall_mshr_misses::.cpu.inst          260                       # number of overall MSHR misses
system.l2cache.overall_mshr_misses::.cpu.data          163                       # number of overall MSHR misses
system.l2cache.overall_mshr_misses::.cpu.dcache.prefetcher           37                       # number of overall MSHR misses
system.l2cache.overall_mshr_misses::total          460                       # number of overall MSHR misses
system.l2cache.demand_mshr_miss_latency::.cpu.inst     15220000                       # number of demand (read+write) MSHR miss cycles
system.l2cache.demand_mshr_miss_latency::.cpu.data      9976400                       # number of demand (read+write) MSHR miss cycles
system.l2cache.demand_mshr_miss_latency::.cpu.dcache.prefetcher      2391163                       # number of demand (read+write) MSHR miss cycles
system.l2cache.demand_mshr_miss_latency::total     27587563                       # number of demand (read+write) MSHR miss cycles
system.l2cache.overall_mshr_miss_latency::.cpu.inst     15220000                       # number of overall MSHR miss cycles
system.l2cache.overall_mshr_miss_latency::.cpu.data      9976400                       # number of overall MSHR miss cycles
system.l2cache.overall_mshr_miss_latency::.cpu.dcache.prefetcher      2391163                       # number of overall MSHR miss cycles
system.l2cache.overall_mshr_miss_latency::total     27587563                       # number of overall MSHR miss cycles
system.l2cache.demand_mshr_miss_rate::.cpu.inst     0.472727                       # mshr miss rate for demand accesses
system.l2cache.demand_mshr_miss_rate::.cpu.data     0.565972                       # mshr miss rate for demand accesses
system.l2cache.demand_mshr_miss_rate::.cpu.dcache.prefetcher     0.804348                       # mshr miss rate for demand accesses
system.l2cache.demand_mshr_miss_rate::total     0.520362                       # mshr miss rate for demand accesses
system.l2cache.overall_mshr_miss_rate::.cpu.inst     0.472727                       # mshr miss rate for overall accesses
system.l2cache.overall_mshr_miss_rate::.cpu.data     0.565972                       # mshr miss rate for overall accesses
system.l2cache.overall_mshr_miss_rate::.cpu.dcache.prefetcher     0.804348                       # mshr miss rate for overall accesses
system.l2cache.overall_mshr_miss_rate::total     0.520362                       # mshr miss rate for overall accesses
system.l2cache.demand_avg_mshr_miss_latency::.cpu.inst 58538.461538                       # average overall mshr miss latency
system.l2cache.demand_avg_mshr_miss_latency::.cpu.data 61204.907975                       # average overall mshr miss latency
system.l2cache.demand_avg_mshr_miss_latency::.cpu.dcache.prefetcher 64626.027027                       # average overall mshr miss latency
system.l2cache.demand_avg_mshr_miss_latency::total 59972.963043                       # average overall mshr miss latency
system.l2cache.overall_avg_mshr_miss_latency::.cpu.inst 58538.461538                       # average overall mshr miss latency
system.l2cache.overall_avg_mshr_miss_latency::.cpu.data 61204.907975                       # average overall mshr miss latency
system.l2cache.overall_avg_mshr_miss_latency::.cpu.dcache.prefetcher 64626.027027                       # average overall mshr miss latency
system.l2cache.overall_avg_mshr_miss_latency::total 59972.963043                       # average overall mshr miss latency
system.l2cache.replacements                       469                       # number of replacements
system.l2cache.WritebackDirty_hits::.writebacks          110                       # number of WritebackDirty hits
system.l2cache.WritebackDirty_hits::total          110                       # number of WritebackDirty hits
system.l2cache.WritebackDirty_accesses::.writebacks          110                       # number of WritebackDirty accesses(hits+misses)
system.l2cache.WritebackDirty_accesses::total          110                       # number of WritebackDirty accesses(hits+misses)
system.l2cache.CleanEvict_mshr_misses::.writebacks           10                       # number of CleanEvict MSHR misses
system.l2cache.CleanEvict_mshr_misses::total           10                       # number of CleanEvict MSHR misses
system.l2cache.CleanEvict_mshr_miss_rate::.writebacks          inf                       # mshr miss rate for CleanEvict accesses
system.l2cache.CleanEvict_mshr_miss_rate::total          inf                       # mshr miss rate for CleanEvict accesses
system.l2cache.ReadExReq_hits::.cpu.data           16                       # number of ReadExReq hits
system.l2cache.ReadExReq_hits::total               16                       # number of ReadExReq hits
system.l2cache.ReadExReq_misses::.cpu.data           45                       # number of ReadExReq misses
system.l2cache.ReadExReq_misses::total             45                       # number of ReadExReq misses
system.l2cache.ReadExReq_miss_latency::.cpu.data      3156400                       # number of ReadExReq miss cycles
system.l2cache.ReadExReq_miss_latency::total      3156400                       # number of ReadExReq miss cycles
system.l2cache.ReadExReq_accesses::.cpu.data           61                       # number of ReadExReq accesses(hits+misses)
system.l2cache.ReadExReq_accesses::total           61                       # number of ReadExReq accesses(hits+misses)
system.l2cache.ReadExReq_miss_rate::.cpu.data     0.737705                       # miss rate for ReadExReq accesses
system.l2cache.ReadExReq_miss_rate::total     0.737705                       # miss rate for ReadExReq accesses
system.l2cache.ReadExReq_avg_miss_latency::.cpu.data 70142.222222                       # average ReadExReq miss latency
system.l2cache.ReadExReq_avg_miss_latency::total 70142.222222                       # average ReadExReq miss latency
system.l2cache.ReadExReq_mshr_misses::.cpu.data           45                       # number of ReadExReq MSHR misses
system.l2cache.ReadExReq_mshr_misses::total           45                       # number of ReadExReq MSHR misses
system.l2cache.ReadExReq_mshr_miss_latency::.cpu.data      2796400                       # number of ReadExReq MSHR miss cycles
system.l2cache.ReadExReq_mshr_miss_latency::total      2796400                       # number of ReadExReq MSHR miss cycles
system.l2cache.ReadExReq_mshr_miss_rate::.cpu.data     0.737705                       # mshr miss rate for ReadExReq accesses
system.l2cache.ReadExReq_mshr_miss_rate::total     0.737705                       # mshr miss rate for ReadExReq accesses
system.l2cache.ReadExReq_avg_mshr_miss_latency::.cpu.data 62142.222222                       # average ReadExReq mshr miss latency
system.l2cache.ReadExReq_avg_mshr_miss_latency::total 62142.222222                       # average ReadExReq mshr miss latency
system.l2cache.ReadSharedReq_hits::.cpu.inst          290                       # number of ReadSharedReq hits
system.l2cache.ReadSharedReq_hits::.cpu.data          109                       # number of ReadSharedReq hits
system.l2cache.ReadSharedReq_hits::.cpu.dcache.prefetcher            9                       # number of ReadSharedReq hits
system.l2cache.ReadSharedReq_hits::total          408                       # number of ReadSharedReq hits
system.l2cache.ReadSharedReq_misses::.cpu.inst          260                       # number of ReadSharedReq misses
system.l2cache.ReadSharedReq_misses::.cpu.data          118                       # number of ReadSharedReq misses
system.l2cache.ReadSharedReq_misses::.cpu.dcache.prefetcher           37                       # number of ReadSharedReq misses
system.l2cache.ReadSharedReq_misses::total          415                       # number of ReadSharedReq misses
system.l2cache.ReadSharedReq_miss_latency::.cpu.inst     17292000                       # number of ReadSharedReq miss cycles
system.l2cache.ReadSharedReq_miss_latency::.cpu.data      8124000                       # number of ReadSharedReq miss cycles
system.l2cache.ReadSharedReq_miss_latency::.cpu.dcache.prefetcher      2687163                       # number of ReadSharedReq miss cycles
system.l2cache.ReadSharedReq_miss_latency::total     28103163                       # number of ReadSharedReq miss cycles
system.l2cache.ReadSharedReq_accesses::.cpu.inst          550                       # number of ReadSharedReq accesses(hits+misses)
system.l2cache.ReadSharedReq_accesses::.cpu.data          227                       # number of ReadSharedReq accesses(hits+misses)
system.l2cache.ReadSharedReq_accesses::.cpu.dcache.prefetcher           46                       # number of ReadSharedReq accesses(hits+misses)
system.l2cache.ReadSharedReq_accesses::total          823                       # number of ReadSharedReq accesses(hits+misses)
system.l2cache.ReadSharedReq_miss_rate::.cpu.inst     0.472727                       # miss rate for ReadSharedReq accesses
system.l2cache.ReadSharedReq_miss_rate::.cpu.data     0.519824                       # miss rate for ReadSharedReq accesses
system.l2cache.ReadSharedReq_miss_rate::.cpu.dcache.prefetcher     0.804348                       # miss rate for ReadSharedReq accesses
system.l2cache.ReadSharedReq_miss_rate::total     0.504253                       # miss rate for ReadSharedReq accesses
system.l2cache.ReadSharedReq_avg_miss_latency::.cpu.inst 66507.692308                       # average ReadSharedReq miss latency
system.l2cache.ReadSharedReq_avg_miss_latency::.cpu.data 68847.457627                       # average ReadSharedReq miss latency
system.l2cache.ReadSharedReq_avg_miss_latency::.cpu.dcache.prefetcher 72626.027027                       # average ReadSharedReq miss latency
system.l2cache.ReadSharedReq_avg_miss_latency::total 67718.465060                       # average ReadSharedReq miss latency
system.l2cache.ReadSharedReq_mshr_misses::.cpu.inst          260                       # number of ReadSharedReq MSHR misses
system.l2cache.ReadSharedReq_mshr_misses::.cpu.data          118                       # number of ReadSharedReq MSHR misses
system.l2cache.ReadSharedReq_mshr_misses::.cpu.dcache.prefetcher           37                       # number of ReadSharedReq MSHR misses
system.l2cache.ReadSharedReq_mshr_misses::total          415                       # number of ReadSharedReq MSHR misses
system.l2cache.ReadSharedReq_mshr_miss_latency::.cpu.inst     15220000                       # number of ReadSharedReq MSHR miss cycles
system.l2cache.ReadSharedReq_mshr_miss_latency::.cpu.data      7180000                       # number of ReadSharedReq MSHR miss cycles
system.l2cache.ReadSharedReq_mshr_miss_latency::.cpu.dcache.prefetcher      2391163                       # number of ReadSharedReq MSHR miss cycles
system.l2cache.ReadSharedReq_mshr_miss_latency::total     24791163                       # number of ReadSharedReq MSHR miss cycles
system.l2cache.ReadSharedReq_mshr_miss_rate::.cpu.inst     0.472727                       # mshr miss rate for ReadSharedReq accesses
system.l2cache.ReadSharedReq_mshr_miss_rate::.cpu.data     0.519824                       # mshr miss rate for ReadSharedReq accesses
system.l2cache.ReadSharedReq_mshr_miss_rate::.cpu.dcache.prefetcher     0.804348                       # mshr miss rate for ReadSharedReq accesses
system.l2cache.ReadSharedReq_mshr_miss_rate::total     0.504253                       # mshr miss rate for ReadSharedReq accesses
system.l2cache.ReadSharedReq_avg_mshr_miss_latency::.cpu.inst 58538.461538                       # average ReadSharedReq mshr miss latency
system.l2cache.ReadSharedReq_avg_mshr_miss_latency::.cpu.data 60847.457627                       # average ReadSharedReq mshr miss latency
system.l2cache.ReadSharedReq_avg_mshr_miss_latency::.cpu.dcache.prefetcher 64626.027027                       # average ReadSharedReq mshr miss latency
system.l2cache.ReadSharedReq_avg_mshr_miss_latency::total 59737.742169                       # average ReadSharedReq mshr miss latency
system.l2cache.prefetcher.pwrStateResidencyTicks::UNDEFINED     52397600                       # Cumulative time (in ticks) in various power states
system.l2cache.tags.pwrStateResidencyTicks::UNDEFINED     52397600                       # Cumulative time (in ticks) in various power states
system.l2cache.tags.tagsinuse                    4096                       # Cycle average of tags in use
system.l2cache.tags.total_refs                  14028                       # Total number of references to valid blocks.
system.l2cache.tags.sampled_refs                 4565                       # Sample count of references to valid blocks.
system.l2cache.tags.avg_refs                 3.072946                       # Average number of references to valid blocks.
system.l2cache.tags.warmup_cycle                    0                       # Cycle when the warmup percentage was hit.
system.l2cache.tags.occ_blocks::.writebacks    41.801739                       # Average occupied blocks per requestor
system.l2cache.tags.occ_blocks::.cpu.inst  1121.660903                       # Average occupied blocks per requestor
system.l2cache.tags.occ_blocks::.cpu.data  1905.063674                       # Average occupied blocks per requestor
system.l2cache.tags.occ_blocks::.cpu.dcache.prefetcher   891.070361                       # Average occupied blocks per requestor
system.l2cache.tags.occ_blocks::.l2cache.prefetcher   136.403324                       # Average occupied blocks per requestor
system.l2cache.tags.occ_percent::.writebacks     0.010206                       # Average percentage of cache occupancy
system.l2cache.tags.occ_percent::.cpu.inst     0.273843                       # Average percentage of cache occupancy
system.l2cache.tags.occ_percent::.cpu.data     0.465103                       # Average percentage of cache occupancy
system.l2cache.tags.occ_percent::.cpu.dcache.prefetcher     0.217546                       # Average percentage of cache occupancy
system.l2cache.tags.occ_percent::.l2cache.prefetcher     0.033302                       # Average percentage of cache occupancy
system.l2cache.tags.occ_percent::total              1                       # Average percentage of cache occupancy
system.l2cache.tags.occ_task_id_blocks::1022          957                       # Occupied blocks per task id
system.l2cache.tags.occ_task_id_blocks::1024         3139                       # Occupied blocks per task id
system.l2cache.tags.age_task_id_blocks_1022::0            7                       # Occupied blocks per task id
system.l2cache.tags.age_task_id_blocks_1022::1           39                       # Occupied blocks per task id
system.l2cache.tags.age_task_id_blocks_1022::2          907                       # Occupied blocks per task id
system.l2cache.tags.age_task_id_blocks_1022::3            4                       # Occupied blocks per task id
system.l2cache.tags.age_task_id_blocks_1024::0          165                       # Occupied blocks per task id
system.l2cache.tags.age_task_id_blocks_1024::1          413                       # Occupied blocks per task id
system.l2cache.tags.age_task_id_blocks_1024::2         2472                       # Occupied blocks per task id
system.l2cache.tags.age_task_id_blocks_1024::3           89                       # Occupied blocks per task id
system.l2cache.tags.occ_task_id_percent::1022     0.233643                       # Percentage of cache occupancy per task id
system.l2cache.tags.occ_task_id_percent::1024     0.766357                       # Percentage of cache occupancy per task id
system.l2cache.tags.tag_accesses                14605                       # Number of tag accesses
system.l2cache.tags.data_accesses               14605                       # Number of data accesses
system.mem_ctrl.pwrStateResidencyTicks::UNDEFINED     52397600                       # Cumulative time (in ticks) in various power states
system.mem_ctrl.bytes_read::.cpu.inst           16576                       # Number of bytes read from this memory
system.mem_ctrl.bytes_read::.cpu.data           10432                       # Number of bytes read from this memory
system.mem_ctrl.bytes_read::.cpu.dcache.prefetcher         2368                       # Number of bytes read from this memory
system.mem_ctrl.bytes_read::total               29376                       # Number of bytes read from this memory
system.mem_ctrl.bytes_inst_read::.cpu.inst        16576                       # Number of instructions bytes read from this memory
system.mem_ctrl.bytes_inst_read::total          16576                       # Number of instructions bytes read from this memory
system.mem_ctrl.bytes_written::.writebacks         2624                       # Number of bytes written to this memory
system.mem_ctrl.bytes_written::total             2624                       # Number of bytes written to this memory
system.mem_ctrl.num_reads::.cpu.inst              259                       # Number of read requests responded to by this memory
system.mem_ctrl.num_reads::.cpu.data              163                       # Number of read requests responded to by this memory
system.mem_ctrl.num_reads::.cpu.dcache.prefetcher           37                       # Number of read requests responded to by this memory
system.mem_ctrl.num_reads::total                  459                       # Number of read requests responded to by this memory
system.mem_ctrl.num_writes::.writebacks            41                       # Number of write requests responded to by this memory
system.mem_ctrl.num_writes::total                  41                       # Number of write requests responded to by this memory
system.mem_ctrl.bw_read::.cpu.inst          316350367                       # Total read bandwidth from this memory (bytes/s)
system.mem_ctrl.bw_read::.cpu.data          199093088                       # Total read bandwidth from this memory (bytes/s)
system.mem_ctrl.bw_read::.cpu.dcache.prefetcher     45192910                       # Total read bandwidth from this memory (bytes/s)
system.mem_ctrl.bw_read::total              560636365                       # Total read bandwidth from this memory (bytes/s)
system.mem_ctrl.bw_inst_read::.cpu.inst     316350367                       # Instruction read bandwidth from this memory (bytes/s)
system.mem_ctrl.bw_inst_read::total         316350367                       # Instruction read bandwidth from this memory (bytes/s)
system.mem_ctrl.bw_write::.writebacks        50078630                       # Write bandwidth from this memory (bytes/s)
system.mem_ctrl.bw_write::total              50078630                       # Write bandwidth from this memory (bytes/s)
system.mem_ctrl.bw_total::.writebacks        50078630                       # Total bandwidth to/from this memory (bytes/s)
system.mem_ctrl.bw_total::.cpu.inst         316350367                       # Total bandwidth to/from this memory (bytes/s)
system.mem_ctrl.bw_total::.cpu.data         199093088                       # Total bandwidth to/from this memory (bytes/s)
system.mem_ctrl.bw_total::.cpu.dcache.prefetcher     45192910                       # Total bandwidth to/from this memory (bytes/s)
system.mem_ctrl.bw_total::total             610714995                       # Total bandwidth to/from this memory (bytes/s)

---------- End Simulation Statistics   ----------
