
---------- Begin Simulation Statistics ----------
final_tick                                 1135301200                       # Number of ticks from beginning of simulation (restored from checkpoints and never reset)
host_inst_rate                                 148458                       # Simulator instruction rate (inst/s)
host_mem_usage                                4406828                       # Number of bytes of host memory used
host_op_rate                                   259726                       # Simulator op (including micro ops) rate (op/s)
host_seconds                                    14.77                       # Real time elapsed on the host
host_tick_rate                               76867373                       # Simulator tick rate (ticks/s)
sim_freq                                 1000000000000                       # Frequency of simulated ticks
sim_insts                                     2192651                       # Number of instructions simulated
sim_ops                                       3836049                       # Number of ops (including micro ops) simulated
sim_seconds                                  0.001135                       # Number of seconds simulated
sim_ticks                                  1135301200                       # Number of ticks simulated
system.cpu.branchPred.BTBCorrect                    0                       # Number of correct BTB predictions (this stat may not work properly.
system.cpu.branchPred.BTBHitPct              0.000000                       # BTB Hit Percentage
system.cpu.branchPred.BTBHits                       0                       # Number of BTB hits
system.cpu.branchPred.BTBLookups               457782                       # Number of BTB lookups
system.cpu.branchPred.RASInCorrect                  8                       # Number of incorrect RAS predictions.
system.cpu.branchPred.condIncorrect             25018                       # Number of conditional branches incorrect
system.cpu.branchPred.condPredicted            488175                       # Number of conditional branches predicted
system.cpu.branchPred.indirectHits             251376                       # Number of indirect target hits.
system.cpu.branchPred.indirectLookups          457782                       # Number of indirect predictor lookups.
system.cpu.branchPred.indirectMisses           206406                       # Number of indirect misses.
system.cpu.branchPred.lookups                  518614                       # Number of BP lookups
system.cpu.branchPred.usedRAS                   13332                       # Number of times the RAS was used to get a target.
system.cpu.branchPredindirectMispredicted        12563                       # Number of mispredicted indirect branches.
system.cpu.cc_regfile_reads                   2513392                       # number of cc regfile reads
system.cpu.cc_regfile_writes                  2019688                       # number of cc regfile writes
system.cpu.commit.amos                              0                       # Number of atomic instructions committed
system.cpu.commit.branchMispredicts             25115                       # The number of times a branch was mispredicted
system.cpu.commit.branches                     371357                       # Number of branches committed
system.cpu.commit.bw_lim_events                634980                       # number cycles where commit BW limit reached
system.cpu.commit.commitNonSpecStalls             742                       # The number of times commit has been forced to stall to communicate backwards
system.cpu.commit.commitSquashedInsts          899649                       # The number of squashed insts skipped by commit
system.cpu.commit.committedInsts              2192651                       # Number of instructions committed
system.cpu.commit.committedOps                3836049                       # Number of ops (including micro ops) committed
system.cpu.commit.committed_per_cycle::samples      2429113                       # Number of insts commited each cycle
system.cpu.commit.committed_per_cycle::mean     1.579197                       # Number of insts commited each cycle
system.cpu.commit.committed_per_cycle::stdev     1.724434                       # Number of insts commited each cycle
system.cpu.commit.committed_per_cycle::underflows            0      0.00%      0.00% # Number of insts commited each cycle
system.cpu.commit.committed_per_cycle::0      1167623     48.07%     48.07% # Number of insts commited each cycle
system.cpu.commit.committed_per_cycle::1       199999      8.23%     56.30% # Number of insts commited each cycle
system.cpu.commit.committed_per_cycle::2       183403      7.55%     63.85% # Number of insts commited each cycle
system.cpu.commit.committed_per_cycle::3       243108     10.01%     73.86% # Number of insts commited each cycle
system.cpu.commit.committed_per_cycle::4       634980     26.14%    100.00% # Number of insts commited each cycle
system.cpu.commit.committed_per_cycle::overflows            0      0.00%    100.00% # Number of insts commited each cycle
system.cpu.commit.committed_per_cycle::min_value            0                       # Number of insts commited each cycle
system.cpu.commit.committed_per_cycle::max_value            4                       # Number of insts commited each cycle
system.cpu.commit.committed_per_cycle::total      2429113                       # Number of insts commited each cycle
system.cpu.commit.fp_insts                      83135                       # Number of committed floating point instructions.
system.cpu.commit.function_calls                11410                       # Number of function calls committed.
system.cpu.commit.int_insts                   3773064                       # Number of committed integer instructions.
system.cpu.commit.loads                        520803                       # Number of loads committed
system.cpu.commit.membars                           1                       # Number of memory barriers committed
system.cpu.commit.op_class_0::No_OpClass        21472      0.56%      0.56% # Class of committed instruction
system.cpu.commit.op_class_0::IntAlu          3013771     78.56%     79.12% # Class of committed instruction
system.cpu.commit.op_class_0::IntMult            2765      0.07%     79.20% # Class of committed instruction
system.cpu.commit.op_class_0::IntDiv            37707      0.98%     80.18% # Class of committed instruction
system.cpu.commit.op_class_0::FloatAdd           3273      0.09%     80.26% # Class of committed instruction
system.cpu.commit.op_class_0::FloatCmp              0      0.00%     80.26% # Class of committed instruction
system.cpu.commit.op_class_0::FloatCvt           1216      0.03%     80.30% # Class of committed instruction
system.cpu.commit.op_class_0::FloatMult             0      0.00%     80.30% # Class of committed instruction
system.cpu.commit.op_class_0::FloatMultAcc            0      0.00%     80.30% # Class of committed instruction
system.cpu.commit.op_class_0::FloatDiv              0      0.00%     80.30% # Class of committed instruction
system.cpu.commit.op_class_0::FloatMisc             0      0.00%     80.30% # Class of committed instruction
system.cpu.commit.op_class_0::FloatSqrt             0      0.00%     80.30% # Class of committed instruction
system.cpu.commit.op_class_0::SimdAdd            6262      0.16%     80.46% # Class of committed instruction
system.cpu.commit.op_class_0::SimdAddAcc            0      0.00%     80.46% # Class of committed instruction
system.cpu.commit.op_class_0::SimdAlu           12789      0.33%     80.79% # Class of committed instruction
system.cpu.commit.op_class_0::SimdCmp               0      0.00%     80.79% # Class of committed instruction
system.cpu.commit.op_class_0::SimdCvt           13752      0.36%     81.15% # Class of committed instruction
system.cpu.commit.op_class_0::SimdMisc          10028      0.26%     81.41% # Class of committed instruction
system.cpu.commit.op_class_0::SimdMult              0      0.00%     81.41% # Class of committed instruction
system.cpu.commit.op_class_0::SimdMultAcc            0      0.00%     81.41% # Class of committed instruction
system.cpu.commit.op_class_0::SimdShift          1162      0.03%     81.44% # Class of committed instruction
system.cpu.commit.op_class_0::SimdShiftAcc            0      0.00%     81.44% # Class of committed instruction
system.cpu.commit.op_class_0::SimdDiv               0      0.00%     81.44% # Class of committed instruction
system.cpu.commit.op_class_0::SimdSqrt              0      0.00%     81.44% # Class of committed instruction
system.cpu.commit.op_class_0::SimdFloatAdd            0      0.00%     81.44% # Class of committed instruction
system.cpu.commit.op_class_0::SimdFloatAlu            0      0.00%     81.44% # Class of committed instruction
system.cpu.commit.op_class_0::SimdFloatCmp            0      0.00%     81.44% # Class of committed instruction
system.cpu.commit.op_class_0::SimdFloatCvt            0      0.00%     81.44% # Class of committed instruction
system.cpu.commit.op_class_0::SimdFloatDiv            0      0.00%     81.44% # Class of committed instruction
system.cpu.commit.op_class_0::SimdFloatMisc            0      0.00%     81.44% # Class of committed instruction
system.cpu.commit.op_class_0::SimdFloatMult            0      0.00%     81.44% # Class of committed instruction
system.cpu.commit.op_class_0::SimdFloatMultAcc            0      0.00%     81.44% # Class of committed instruction
system.cpu.commit.op_class_0::SimdFloatSqrt            0      0.00%     81.44% # Class of committed instruction
system.cpu.commit.op_class_0::SimdReduceAdd            0      0.00%     81.44% # Class of committed instruction
system.cpu.commit.op_class_0::SimdReduceAlu            0      0.00%     81.44% # Class of committed instruction
system.cpu.commit.op_class_0::SimdReduceCmp            0      0.00%     81.44% # Class of committed instruction
system.cpu.commit.op_class_0::SimdFloatReduceAdd            0      0.00%     81.44% # Class of committed instruction
system.cpu.commit.op_class_0::SimdFloatReduceCmp            0      0.00%     81.44% # Class of committed instruction
system.cpu.commit.op_class_0::SimdAes               0      0.00%     81.44% # Class of committed instruction
system.cpu.commit.op_class_0::SimdAesMix            0      0.00%     81.44% # Class of committed instruction
system.cpu.commit.op_class_0::SimdSha1Hash            0      0.00%     81.44% # Class of committed instruction
system.cpu.commit.op_class_0::SimdSha1Hash2            0      0.00%     81.44% # Class of committed instruction
system.cpu.commit.op_class_0::SimdSha256Hash            0      0.00%     81.44% # Class of committed instruction
system.cpu.commit.op_class_0::SimdSha256Hash2            0      0.00%     81.44% # Class of committed instruction
system.cpu.commit.op_class_0::SimdShaSigma2            0      0.00%     81.44% # Class of committed instruction
system.cpu.commit.op_class_0::SimdShaSigma3            0      0.00%     81.44% # Class of committed instruction
system.cpu.commit.op_class_0::SimdPredAlu            0      0.00%     81.44% # Class of committed instruction
system.cpu.commit.op_class_0::MemRead          500509     13.05%     94.49% # Class of committed instruction
system.cpu.commit.op_class_0::MemWrite         178682      4.66%     99.15% # Class of committed instruction
system.cpu.commit.op_class_0::FloatMemRead        20294      0.53%     99.68% # Class of committed instruction
system.cpu.commit.op_class_0::FloatMemWrite        12367      0.32%    100.00% # Class of committed instruction
system.cpu.commit.op_class_0::IprAccess             0      0.00%    100.00% # Class of committed instruction
system.cpu.commit.op_class_0::InstPrefetch            0      0.00%    100.00% # Class of committed instruction
system.cpu.commit.op_class_0::total           3836049                       # Class of committed instruction
system.cpu.commit.refs                         711852                       # Number of memory references committed
system.cpu.commit.swp_count                         0                       # Number of s/w prefetches committed
system.cpu.commit.vec_insts                         0                       # Number of committed Vector instructions.
system.cpu.committedInsts                     2192651                       # Number of Instructions Simulated
system.cpu.committedOps                       3836049                       # Number of Ops (including micro ops) Simulated
system.cpu.cpi                               1.294439                       # CPI: Cycles Per Instruction
system.cpu.cpi_total                         1.294439                       # CPI: Total CPI of All Threads
system.cpu.dcache.prefetcher.num_hwpf_issued         8129                       # number of hwpf issued
system.cpu.dcache.prefetcher.pfBufferHit        32418                       # number of redundant prefetches already in prefetch queue
system.cpu.dcache.prefetcher.pfIdentified        47405                       # number of prefetch candidates identified
system.cpu.dcache.prefetcher.pfInCache              0                       # number of redundant prefetches already in cache/mshr dropped
system.cpu.dcache.prefetcher.pfRemovedFull            0                       # number of prefetches dropped due to prefetch queue size
system.cpu.dcache.prefetcher.pfSpanPage          4391                       # number of prefetches that crossed the page
system.cpu.decode.BlockedCycles               1024758                       # Number of cycles decode is blocked
system.cpu.decode.DecodedInsts                4959138                       # Number of instructions handled by decode
system.cpu.decode.IdleCycles                   320425                       # Number of cycles decode is idle
system.cpu.decode.RunCycles                   1214295                       # Number of cycles decode is running
system.cpu.decode.SquashCycles                  25192                       # Number of cycles decode is squashing
system.cpu.decode.UnblockCycles                 89829                       # Number of cycles decode is unblocking
system.cpu.dtb.rdAccesses                      606034                       # TLB accesses on read requests
system.cpu.dtb.rdMisses                          2138                       # TLB misses on read requests
system.cpu.dtb.wrAccesses                      210803                       # TLB accesses on write requests
system.cpu.dtb.wrMisses                           173                       # TLB misses on write requests
system.cpu.fetch.Branches                      518614                       # Number of branches that fetch encountered
system.cpu.fetch.CacheLines                    265236                       # Number of cache lines fetched
system.cpu.fetch.Cycles                       2292289                       # Number of cycles fetch has run and was not squashing or blocked
system.cpu.fetch.IcacheSquashes                  4662                       # Number of outstanding Icache misses that were squashed
system.cpu.fetch.Insts                        2975705                       # Number of instructions fetch has processed
system.cpu.fetch.MiscStallCycles                  141                       # Number of cycles fetch has spent waiting on interrupts, or bad addresses, or out of MSHRs
system.cpu.fetch.PendingQuiesceStallCycles            6                       # Number of stall cycles due to pending quiesce instructions
system.cpu.fetch.PendingTrapStallCycles           705                       # Number of stall cycles due to pending traps
system.cpu.fetch.SquashCycles                   50384                       # Number of cycles fetch has spent squashing
system.cpu.fetch.branchRate                  0.182723                       # Number of branch fetches per cycle
system.cpu.fetch.icacheStallCycles             356166                       # Number of cycles fetch is stalled on an Icache miss
system.cpu.fetch.predictedBranches             264708                       # Number of branches that fetch has predicted taken
system.cpu.fetch.rate                        1.048428                       # Number of inst fetches per cycle
system.cpu.fetch.rateDist::samples            2674499                       # Number of instructions fetched each cycle (Total)
system.cpu.fetch.rateDist::mean              1.958129                       # Number of instructions fetched each cycle (Total)
system.cpu.fetch.rateDist::stdev             1.928550                       # Number of instructions fetched each cycle (Total)
system.cpu.fetch.rateDist::underflows               0      0.00%      0.00% # Number of instructions fetched each cycle (Total)
system.cpu.fetch.rateDist::0                  1251036     46.78%     46.78% # Number of instructions fetched each cycle (Total)
system.cpu.fetch.rateDist::1                    82972      3.10%     49.88% # Number of instructions fetched each cycle (Total)
system.cpu.fetch.rateDist::2                    63323      2.37%     52.25% # Number of instructions fetched each cycle (Total)
system.cpu.fetch.rateDist::3                    81276      3.04%     55.29% # Number of instructions fetched each cycle (Total)
system.cpu.fetch.rateDist::4                  1195892     44.71%    100.00% # Number of instructions fetched each cycle (Total)
system.cpu.fetch.rateDist::overflows                0      0.00%    100.00% # Number of instructions fetched each cycle (Total)
system.cpu.fetch.rateDist::min_value                0                       # Number of instructions fetched each cycle (Total)
system.cpu.fetch.rateDist::max_value                4                       # Number of instructions fetched each cycle (Total)
system.cpu.fetch.rateDist::total              2674499                       # Number of instructions fetched each cycle (Total)
system.cpu.fp_regfile_reads                    136634                       # number of floating regfile reads
system.cpu.fp_regfile_writes                    74464                       # number of floating regfile writes
system.cpu.fuPool.fu_ticks_busy::IntALU(0)    230142400                       # Total ticks fu was busy
system.cpu.fuPool.fu_ticks_busy::IntALU(1)    230142400                       # Total ticks fu was busy
system.cpu.fuPool.fu_ticks_busy::IntALU(2)    230142400                       # Total ticks fu was busy
system.cpu.fuPool.fu_ticks_busy::IntALU(3)    230142400                       # Total ticks fu was busy
system.cpu.fuPool.fu_ticks_busy::IntALU(4)    230142000                       # Total ticks fu was busy
system.cpu.fuPool.fu_ticks_busy::IntALU(5)    230142000                       # Total ticks fu was busy
system.cpu.fuPool.fu_ticks_busy::IntMultDiv(0)      8833200                       # Total ticks fu was busy
system.cpu.fuPool.fu_ticks_busy::IntMultDiv(1)      8832800                       # Total ticks fu was busy
system.cpu.fuPool.fu_ticks_busy::FP_ALU(0)       609200                       # Total ticks fu was busy
system.cpu.fuPool.fu_ticks_busy::FP_ALU(1)       609200                       # Total ticks fu was busy
system.cpu.fuPool.fu_ticks_busy::FP_ALU(2)       608800                       # Total ticks fu was busy
system.cpu.fuPool.fu_ticks_busy::FP_ALU(3)       608800                       # Total ticks fu was busy
system.cpu.fuPool.fu_ticks_busy::FP_MultDiv(0)            0                       # Total ticks fu was busy
system.cpu.fuPool.fu_ticks_busy::FP_MultDiv(1)            0                       # Total ticks fu was busy
system.cpu.fuPool.fu_ticks_busy::SIMD_Unit(0)      5190000                       # Total ticks fu was busy
system.cpu.fuPool.fu_ticks_busy::SIMD_Unit(1)      5196000                       # Total ticks fu was busy
system.cpu.fuPool.fu_ticks_busy::SIMD_Unit(2)      5131600                       # Total ticks fu was busy
system.cpu.fuPool.fu_ticks_busy::SIMD_Unit(3)      5167600                       # Total ticks fu was busy
system.cpu.fuPool.fu_ticks_busy::PredALU(0)            0                       # Total ticks fu was busy
system.cpu.fuPool.fu_ticks_busy::RdWrPort(0)     83173200                       # Total ticks fu was busy
system.cpu.fuPool.fu_ticks_busy::RdWrPort(1)     83157600                       # Total ticks fu was busy
system.cpu.fuPool.fu_ticks_busy::RdWrPort(2)     83155600                       # Total ticks fu was busy
system.cpu.fuPool.fu_ticks_busy::RdWrPort(3)     83165200                       # Total ticks fu was busy
system.cpu.fuPool.fu_ticks_busy::IprPort(0)            0                       # Total ticks fu was busy
system.cpu.fuPool.fu_ticks_busy::total     1754292400                       # Total ticks fu was busy
system.cpu.icache.prefetcher.num_hwpf_issued            0                       # number of hwpf issued
system.cpu.icache.prefetcher.pfBufferHit            0                       # number of redundant prefetches already in prefetch queue
system.cpu.icache.prefetcher.pfIdentified            0                       # number of prefetch candidates identified
system.cpu.icache.prefetcher.pfInCache              0                       # number of redundant prefetches already in cache/mshr dropped
system.cpu.icache.prefetcher.pfRemovedFull            0                       # number of prefetches dropped due to prefetch queue size
system.cpu.icache.prefetcher.pfSpanPage             0                       # number of prefetches that crossed the page
system.cpu.idleCycles                          163755                       # Total number of cycles that the CPU has spent unscheduled due to idling
system.cpu.iew.branchMispredicts                29720                       # Number of branch mispredicts detected at execute
system.cpu.iew.exec_branches                   402736                       # Number of branches executed
system.cpu.iew.exec_nop                             0                       # number of nop insts executed
system.cpu.iew.exec_rate                     1.542456                       # Inst execution rate
system.cpu.iew.exec_refs                       818254                       # number of memory reference insts executed
system.cpu.iew.exec_stores                     210740                       # Number of stores executed
system.cpu.iew.exec_swp                             0                       # number of swp insts executed
system.cpu.iew.iewBlockCycles                  691352                       # Number of cycles IEW is blocking
system.cpu.iew.iewDispLoadInsts                638916                       # Number of dispatched load instructions
system.cpu.iew.iewDispNonSpecInsts                930                       # Number of dispatched non-speculative instructions
system.cpu.iew.iewDispSquashedInsts               592                       # Number of squashed instructions skipped by dispatch
system.cpu.iew.iewDispStoreInsts               221748                       # Number of dispatched store instructions
system.cpu.iew.iewDispatchedInsts             4735638                       # Number of instructions dispatched to IQ
system.cpu.iew.iewExecLoadInsts                607514                       # Number of load instructions executed
system.cpu.iew.iewExecSquashedInsts             35644                       # Number of squashed instructions skipped in execute
system.cpu.iew.iewExecutedInsts               4377881                       # Number of executed instructions
system.cpu.iew.iewIQFullEvents                   3234                       # Number of times the IQ has become full, causing a stall
system.cpu.iew.iewIdleCycles                        0                       # Number of cycles IEW is idle
system.cpu.iew.iewLSQFullEvents                  9220                       # Number of times the LSQ has become full, causing a stall
system.cpu.iew.iewSquashCycles                  25192                       # Number of cycles IEW is squashing
system.cpu.iew.iewUnblockCycles                 15265                       # Number of cycles IEW is unblocking
system.cpu.iew.lsq.thread0.blockedLoads             0                       # Number of blocked loads due to partial load-store forwarding
system.cpu.iew.lsq.thread0.cacheBlocked           601                       # Number of times an access to memory failed due to the cache being blocked
system.cpu.iew.lsq.thread0.forwLoads            42135                       # Number of loads that had data forwarded from stores
system.cpu.iew.lsq.thread0.ignoredResponses          275                       # Number of memory responses ignored because the instruction is squashed
system.cpu.iew.lsq.thread0.invAddrLoads             0                       # Number of loads ignored due to an invalid address
system.cpu.iew.lsq.thread0.invAddrSwpfs             0                       # Number of software prefetches ignored due to an invalid address
system.cpu.iew.lsq.thread0.memOrderViolation           88                       # Number of memory ordering violations
system.cpu.iew.lsq.thread0.rescheduledLoads           31                       # Number of loads that were rescheduled
system.cpu.iew.lsq.thread0.squashedLoads       118111                       # Number of loads squashed
system.cpu.iew.lsq.thread0.squashedStores        30698                       # Number of stores squashed
system.cpu.iew.memOrderViolationEvents             88                       # Number of memory order violations
system.cpu.iew.predictedNotTakenIncorrect        21229                       # Number of branches that were predicted not taken incorrectly
system.cpu.iew.predictedTakenIncorrect           8491                       # Number of branches that were predicted taken incorrectly
system.cpu.iew.wb_consumers                   6064344                       # num instructions consuming a value
system.cpu.iew.wb_count                       4355118                       # cumulative count of insts written-back
system.cpu.iew.wb_fanout                     0.569840                       # average fanout of values written-back
system.cpu.iew.wb_producers                   3455705                       # num instructions producing a value
system.cpu.iew.wb_rate                       1.534436                       # insts written-back per cycle
system.cpu.iew.wb_sent                        4362426                       # cumulative count of insts sent to commit
system.cpu.int_regfile_reads                  6767425                       # number of integer regfile reads
system.cpu.int_regfile_writes                 3743778                       # number of integer regfile writes
system.cpu.ipc                               0.772535                       # IPC: Instructions Per Cycle
system.cpu.ipc_total                         0.772535                       # IPC: Total IPC of All Threads
system.cpu.iq.FU_type_0::No_OpClass             27794      0.63%      0.63% # Type of FU issued
system.cpu.iq.FU_type_0::IntAlu               3452135     78.22%     78.85% # Type of FU issued
system.cpu.iq.FU_type_0::IntMult                 2789      0.06%     78.91% # Type of FU issued
system.cpu.iq.FU_type_0::IntDiv                 41376      0.94%     79.85% # Type of FU issued
system.cpu.iq.FU_type_0::FloatAdd                4836      0.11%     79.96% # Type of FU issued
system.cpu.iq.FU_type_0::FloatCmp                   0      0.00%     79.96% # Type of FU issued
system.cpu.iq.FU_type_0::FloatCvt                1254      0.03%     79.99% # Type of FU issued
system.cpu.iq.FU_type_0::FloatMult                  0      0.00%     79.99% # Type of FU issued
system.cpu.iq.FU_type_0::FloatMultAcc               0      0.00%     79.99% # Type of FU issued
system.cpu.iq.FU_type_0::FloatDiv                   0      0.00%     79.99% # Type of FU issued
system.cpu.iq.FU_type_0::FloatMisc                  0      0.00%     79.99% # Type of FU issued
system.cpu.iq.FU_type_0::FloatSqrt                  0      0.00%     79.99% # Type of FU issued
system.cpu.iq.FU_type_0::SimdAdd                 6925      0.16%     80.14% # Type of FU issued
system.cpu.iq.FU_type_0::SimdAddAcc                 0      0.00%     80.14% # Type of FU issued
system.cpu.iq.FU_type_0::SimdAlu                16405      0.37%     80.51% # Type of FU issued
system.cpu.iq.FU_type_0::SimdCmp                    0      0.00%     80.51% # Type of FU issued
system.cpu.iq.FU_type_0::SimdCvt                15511      0.35%     80.87% # Type of FU issued
system.cpu.iq.FU_type_0::SimdMisc               10617      0.24%     81.11% # Type of FU issued
system.cpu.iq.FU_type_0::SimdMult                   0      0.00%     81.11% # Type of FU issued
system.cpu.iq.FU_type_0::SimdMultAcc                0      0.00%     81.11% # Type of FU issued
system.cpu.iq.FU_type_0::SimdShift               2255      0.05%     81.16% # Type of FU issued
system.cpu.iq.FU_type_0::SimdShiftAcc               0      0.00%     81.16% # Type of FU issued
system.cpu.iq.FU_type_0::SimdDiv                    0      0.00%     81.16% # Type of FU issued
system.cpu.iq.FU_type_0::SimdSqrt                   0      0.00%     81.16% # Type of FU issued
system.cpu.iq.FU_type_0::SimdFloatAdd               0      0.00%     81.16% # Type of FU issued
system.cpu.iq.FU_type_0::SimdFloatAlu               0      0.00%     81.16% # Type of FU issued
system.cpu.iq.FU_type_0::SimdFloatCmp               0      0.00%     81.16% # Type of FU issued
system.cpu.iq.FU_type_0::SimdFloatCvt               0      0.00%     81.16% # Type of FU issued
system.cpu.iq.FU_type_0::SimdFloatDiv               0      0.00%     81.16% # Type of FU issued
system.cpu.iq.FU_type_0::SimdFloatMisc              0      0.00%     81.16% # Type of FU issued
system.cpu.iq.FU_type_0::SimdFloatMult              0      0.00%     81.16% # Type of FU issued
system.cpu.iq.FU_type_0::SimdFloatMultAcc            0      0.00%     81.16% # Type of FU issued
system.cpu.iq.FU_type_0::SimdFloatSqrt              0      0.00%     81.16% # Type of FU issued
system.cpu.iq.FU_type_0::SimdReduceAdd              0      0.00%     81.16% # Type of FU issued
system.cpu.iq.FU_type_0::SimdReduceAlu              0      0.00%     81.16% # Type of FU issued
system.cpu.iq.FU_type_0::SimdReduceCmp              0      0.00%     81.16% # Type of FU issued
system.cpu.iq.FU_type_0::SimdFloatReduceAdd            0      0.00%     81.16% # Type of FU issued
system.cpu.iq.FU_type_0::SimdFloatReduceCmp            0      0.00%     81.16% # Type of FU issued
system.cpu.iq.FU_type_0::SimdAes                    0      0.00%     81.16% # Type of FU issued
system.cpu.iq.FU_type_0::SimdAesMix                 0      0.00%     81.16% # Type of FU issued
system.cpu.iq.FU_type_0::SimdSha1Hash               0      0.00%     81.16% # Type of FU issued
system.cpu.iq.FU_type_0::SimdSha1Hash2              0      0.00%     81.16% # Type of FU issued
system.cpu.iq.FU_type_0::SimdSha256Hash             0      0.00%     81.16% # Type of FU issued
system.cpu.iq.FU_type_0::SimdSha256Hash2            0      0.00%     81.16% # Type of FU issued
system.cpu.iq.FU_type_0::SimdShaSigma2              0      0.00%     81.16% # Type of FU issued
system.cpu.iq.FU_type_0::SimdShaSigma3              0      0.00%     81.16% # Type of FU issued
system.cpu.iq.FU_type_0::SimdPredAlu                0      0.00%     81.16% # Type of FU issued
system.cpu.iq.FU_type_0::MemRead               592072     13.41%     94.57% # Type of FU issued
system.cpu.iq.FU_type_0::MemWrite              199642      4.52%     99.10% # Type of FU issued
system.cpu.iq.FU_type_0::FloatMemRead           26111      0.59%     99.69% # Type of FU issued
system.cpu.iq.FU_type_0::FloatMemWrite          13806      0.31%    100.00% # Type of FU issued
system.cpu.iq.FU_type_0::IprAccess                  0      0.00%    100.00% # Type of FU issued
system.cpu.iq.FU_type_0::InstPrefetch               0      0.00%    100.00% # Type of FU issued
system.cpu.iq.FU_type_0::total                4413528                       # Type of FU issued
system.cpu.iq.fp_alu_accesses                   99893                       # Number of floating point alu accesses
system.cpu.iq.fp_inst_queue_reads              201169                       # Number of floating instruction queue reads
system.cpu.iq.fp_inst_queue_wakeup_accesses        96422                       # Number of floating instruction queue wakeup accesses
system.cpu.iq.fp_inst_queue_writes             139923                       # Number of floating instruction queue writes
system.cpu.iq.fu_busy_cnt                           0                       # FU busy when requested
system.cpu.iq.fu_busy_rate                          0                       # FU busy rate (busy events/executed inst)
system.cpu.iq.fu_full::No_OpClass                   0                       # attempts to use FU when none available
system.cpu.iq.fu_full::IntAlu                       0                       # attempts to use FU when none available
system.cpu.iq.fu_full::IntMult                      0                       # attempts to use FU when none available
system.cpu.iq.fu_full::IntDiv                       0                       # attempts to use FU when none available
system.cpu.iq.fu_full::FloatAdd                     0                       # attempts to use FU when none available
system.cpu.iq.fu_full::FloatCmp                     0                       # attempts to use FU when none available
system.cpu.iq.fu_full::FloatCvt                     0                       # attempts to use FU when none available
system.cpu.iq.fu_full::FloatMult                    0                       # attempts to use FU when none available
system.cpu.iq.fu_full::FloatMultAcc                 0                       # attempts to use FU when none available
system.cpu.iq.fu_full::FloatDiv                     0                       # attempts to use FU when none available
system.cpu.iq.fu_full::FloatMisc                    0                       # attempts to use FU when none available
system.cpu.iq.fu_full::FloatSqrt                    0                       # attempts to use FU when none available
system.cpu.iq.fu_full::SimdAdd                      0                       # attempts to use FU when none available
system.cpu.iq.fu_full::SimdAddAcc                   0                       # attempts to use FU when none available
system.cpu.iq.fu_full::SimdAlu                      0                       # attempts to use FU when none available
system.cpu.iq.fu_full::SimdCmp                      0                       # attempts to use FU when none available
system.cpu.iq.fu_full::SimdCvt                      0                       # attempts to use FU when none available
system.cpu.iq.fu_full::SimdMisc                     0                       # attempts to use FU when none available
system.cpu.iq.fu_full::SimdMult                     0                       # attempts to use FU when none available
system.cpu.iq.fu_full::SimdMultAcc                  0                       # attempts to use FU when none available
system.cpu.iq.fu_full::SimdShift                    0                       # attempts to use FU when none available
system.cpu.iq.fu_full::SimdShiftAcc                 0                       # attempts to use FU when none available
system.cpu.iq.fu_full::SimdDiv                      0                       # attempts to use FU when none available
system.cpu.iq.fu_full::SimdSqrt                     0                       # attempts to use FU when none available
system.cpu.iq.fu_full::SimdFloatAdd                 0                       # attempts to use FU when none available
system.cpu.iq.fu_full::SimdFloatAlu                 0                       # attempts to use FU when none available
system.cpu.iq.fu_full::SimdFloatCmp                 0                       # attempts to use FU when none available
system.cpu.iq.fu_full::SimdFloatCvt                 0                       # attempts to use FU when none available
system.cpu.iq.fu_full::SimdFloatDiv                 0                       # attempts to use FU when none available
system.cpu.iq.fu_full::SimdFloatMisc                0                       # attempts to use FU when none available
system.cpu.iq.fu_full::SimdFloatMult                0                       # attempts to use FU when none available
system.cpu.iq.fu_full::SimdFloatMultAcc             0                       # attempts to use FU when none available
system.cpu.iq.fu_full::SimdFloatSqrt                0                       # attempts to use FU when none available
system.cpu.iq.fu_full::SimdReduceAdd                0                       # attempts to use FU when none available
system.cpu.iq.fu_full::SimdReduceAlu                0                       # attempts to use FU when none available
system.cpu.iq.fu_full::SimdReduceCmp                0                       # attempts to use FU when none available
system.cpu.iq.fu_full::SimdFloatReduceAdd            0                       # attempts to use FU when none available
system.cpu.iq.fu_full::SimdFloatReduceCmp            0                       # attempts to use FU when none available
system.cpu.iq.fu_full::SimdAes                      0                       # attempts to use FU when none available
system.cpu.iq.fu_full::SimdAesMix                   0                       # attempts to use FU when none available
system.cpu.iq.fu_full::SimdSha1Hash                 0                       # attempts to use FU when none available
system.cpu.iq.fu_full::SimdSha1Hash2                0                       # attempts to use FU when none available
system.cpu.iq.fu_full::SimdSha256Hash               0                       # attempts to use FU when none available
system.cpu.iq.fu_full::SimdSha256Hash2              0                       # attempts to use FU when none available
system.cpu.iq.fu_full::SimdShaSigma2                0                       # attempts to use FU when none available
system.cpu.iq.fu_full::SimdShaSigma3                0                       # attempts to use FU when none available
system.cpu.iq.fu_full::SimdPredAlu                  0                       # attempts to use FU when none available
system.cpu.iq.fu_full::MemRead                      0                       # attempts to use FU when none available
system.cpu.iq.fu_full::MemWrite                     0                       # attempts to use FU when none available
system.cpu.iq.fu_full::FloatMemRead                 0                       # attempts to use FU when none available
system.cpu.iq.fu_full::FloatMemWrite                0                       # attempts to use FU when none available
system.cpu.iq.fu_full::IprAccess                    0                       # attempts to use FU when none available
system.cpu.iq.fu_full::InstPrefetch                 0                       # attempts to use FU when none available
system.cpu.iq.int_alu_accesses                4285841                       # Number of integer alu accesses
system.cpu.iq.int_inst_queue_reads           11319414                       # Number of integer instruction queue reads
system.cpu.iq.int_inst_queue_wakeup_accesses      4258696                       # Number of integer instruction queue wakeup accesses
system.cpu.iq.int_inst_queue_writes           5495378                       # Number of integer instruction queue writes
system.cpu.iq.iqInstsAdded                    4734539                       # Number of instructions added to the IQ (excludes non-spec)
system.cpu.iq.iqInstsIssued                   4413528                       # Number of instructions issued
system.cpu.iq.iqNonSpecInstsAdded                1099                       # Number of non-speculative instructions added to the IQ
system.cpu.iq.iqSquashedInstsExamined          899578                       # Number of squashed instructions iterated over during squash; mainly for profiling
system.cpu.iq.iqSquashedInstsIssued             19031                       # Number of squashed instructions issued
system.cpu.iq.iqSquashedNonSpecRemoved            357                       # Number of squashed non-spec instructions that were removed
system.cpu.iq.iqSquashedOperandsExamined      1333730                       # Number of squashed operands that are examined and possibly removed from graph
system.cpu.iq.issued_per_cycle::samples       2674499                       # Number of insts issued each cycle
system.cpu.iq.issued_per_cycle::mean         1.650226                       # Number of insts issued each cycle
system.cpu.iq.issued_per_cycle::stdev        1.667693                       # Number of insts issued each cycle
system.cpu.iq.issued_per_cycle::underflows            0      0.00%      0.00% # Number of insts issued each cycle
system.cpu.iq.issued_per_cycle::0             1179192     44.09%     44.09% # Number of insts issued each cycle
system.cpu.iq.issued_per_cycle::1              188842      7.06%     51.15% # Number of insts issued each cycle
system.cpu.iq.issued_per_cycle::2              318786     11.92%     63.07% # Number of insts issued each cycle
system.cpu.iq.issued_per_cycle::3              363602     13.60%     76.67% # Number of insts issued each cycle
system.cpu.iq.issued_per_cycle::4              624077     23.33%    100.00% # Number of insts issued each cycle
system.cpu.iq.issued_per_cycle::overflows            0      0.00%    100.00% # Number of insts issued each cycle
system.cpu.iq.issued_per_cycle::min_value            0                       # Number of insts issued each cycle
system.cpu.iq.issued_per_cycle::max_value            4                       # Number of insts issued each cycle
system.cpu.iq.issued_per_cycle::total         2674499                       # Number of insts issued each cycle
system.cpu.iq.rate                           1.555015                       # Inst issue rate
system.cpu.iq.vec_alu_accesses                      0                       # Number of vector alu accesses
system.cpu.iq.vec_inst_queue_reads                  0                       # Number of vector instruction queue reads
system.cpu.iq.vec_inst_queue_wakeup_accesses            0                       # Number of vector instruction queue wakeup accesses
system.cpu.iq.vec_inst_queue_writes                 0                       # Number of vector instruction queue writes
system.cpu.itb.rdAccesses                           0                       # TLB accesses on read requests
system.cpu.itb.rdMisses                             0                       # TLB misses on read requests
system.cpu.itb.wrAccesses                      265353                       # TLB accesses on write requests
system.cpu.itb.wrMisses                           368                       # TLB misses on write requests
system.cpu.memDep0.conflictingLoads             10018                       # Number of conflicting loads.
system.cpu.memDep0.conflictingStores             4163                       # Number of conflicting stores.
system.cpu.memDep0.insertedLoads               638916                       # Number of loads inserted to the mem dependence unit.
system.cpu.memDep0.insertedStores              221748                       # Number of stores inserted to the mem dependence unit.
system.cpu.misc_regfile_reads                 1660500                       # number of misc regfile reads
system.cpu.misc_regfile_writes                    684                       # number of misc regfile writes
system.cpu.numCycles                          2838254                       # number of cpu cycles simulated
system.cpu.numWorkItemsCompleted                    0                       # number of work items this cpu completed
system.cpu.numWorkItemsStarted                      0                       # number of work items this cpu started
system.cpu.process.numSyscalls                     57                       # Number of system calls
system.cpu.rename.BlockCycles                  840163                       # Number of cycles rename is blocking
system.cpu.rename.CommittedMaps               5202861                       # Number of HB maps that are committed
system.cpu.rename.FullRegisterEvents               18                       # Number of times there has been no free registers
system.cpu.rename.IQFullEvents                  46775                       # Number of times rename has blocked due to IQ full
system.cpu.rename.IdleCycles                   371510                       # Number of cycles rename is idle
system.cpu.rename.LQFullEvents                  15627                       # Number of times rename has blocked due to LQ full
system.cpu.rename.ROBFullEvents                  4799                       # Number of times rename has blocked due to ROB full
system.cpu.rename.RenameLookups              12737406                       # Number of register rename lookups that rename has made
system.cpu.rename.RenamedInsts                4881778                       # Number of instructions processed by rename
system.cpu.rename.RenamedOperands             6615883                       # Number of destination operands rename has renamed
system.cpu.rename.RunCycles                   1244512                       # Number of cycles rename is running
system.cpu.rename.SQFullEvents                  73425                       # Number of times rename has blocked due to SQ full
system.cpu.rename.SquashCycles                  25192                       # Number of cycles rename is squashing
system.cpu.rename.UnblockCycles                173401                       # Number of cycles rename is unblocking
system.cpu.rename.UndoneMaps                  1412999                       # Number of HB maps that are undone due to squashing
system.cpu.rename.fp_rename_lookups            171308                       # Number of floating rename lookups
system.cpu.rename.int_rename_lookups          7724703                       # Number of integer rename lookups
system.cpu.rename.serializeStallCycles          19721                       # count of cycles rename stalled for serializing inst
system.cpu.rename.serializingInsts                882                       # count of serializing insts renamed
system.cpu.rename.skidInsts                    208076                       # count of insts added to the skid buffer
system.cpu.rename.tempSerializingInsts            934                       # count of temporary serializing insts renamed
system.cpu.rob.rob_reads                      6529831                       # The number of ROB reads
system.cpu.rob.rob_writes                     9717728                       # The number of ROB writes
system.cpu.timesIdled                            1603                       # Number of times that the entire CPU went into an idle state and unscheduled itself
system.l2bus.snoop_filter.hit_multi_requests           12                       # Number of requests hitting in the snoop filter with multiple (>1) holders of the requested data.
system.l2bus.snoop_filter.hit_multi_snoops            0                       # Number of snoops hitting in the snoop filter with multiple (>1) holders of the requested data.
system.l2bus.snoop_filter.hit_single_requests        18474                       # Number of requests hitting in the snoop filter with a single holder of the requested data.
system.l2bus.snoop_filter.hit_single_snoops          435                       # Number of snoops hitting in the snoop filter with a single holder of the requested data.
system.l2bus.snoop_filter.tot_requests          38228                       # Total number of requests made to the snoop filter.
system.l2bus.snoop_filter.tot_snoops              435                       # Total number of snoops made to the snoop filter.
system.l2cache.prefetcher.num_hwpf_issued          696                       # number of hwpf issued
system.l2cache.prefetcher.pfBufferHit               0                       # number of redundant prefetches already in prefetch queue
system.l2cache.prefetcher.pfIdentified            696                       # number of prefetch candidates identified
system.l2cache.prefetcher.pfInCache                 0                       # number of redundant prefetches already in cache/mshr dropped
system.l2cache.prefetcher.pfRemovedFull             0                       # number of prefetches dropped due to prefetch queue size
system.l2cache.prefetcher.pfSpanPage              128                       # number of prefetches that crossed the page
system.membus.snoop_filter.hit_multi_requests            0                       # Number of requests hitting in the snoop filter with multiple (>1) holders of the requested data.
system.membus.snoop_filter.hit_multi_snoops            0                       # Number of snoops hitting in the snoop filter with multiple (>1) holders of the requested data.
system.membus.snoop_filter.hit_single_requests         9467                       # Number of requests hitting in the snoop filter with a single holder of the requested data.
system.membus.snoop_filter.hit_single_snoops            0                       # Number of snoops hitting in the snoop filter with a single holder of the requested data.
system.membus.snoop_filter.tot_requests         23058                       # Total number of requests made to the snoop filter.
system.membus.snoop_filter.tot_snoops               0                       # Total number of snoops made to the snoop filter.
system.membus.pwrStateResidencyTicks::UNDEFINED   1135301200                       # Cumulative time (in ticks) in various power states
system.membus.trans_dist::ReadResp              12198                       # Transaction distribution
system.membus.trans_dist::WritebackDirty         1340                       # Transaction distribution
system.membus.trans_dist::CleanEvict             8127                       # Transaction distribution
system.membus.trans_dist::ReadExReq              1393                       # Transaction distribution
system.membus.trans_dist::ReadExResp             1393                       # Transaction distribution
system.membus.trans_dist::ReadSharedReq         12198                       # Transaction distribution
system.membus.pkt_count_system.l2cache.mem_side::system.mem_ctrl.port        36649                       # Packet count per connected master and slave (bytes)
system.membus.pkt_count_system.l2cache.mem_side::total        36649                       # Packet count per connected master and slave (bytes)
system.membus.pkt_count::total                  36649                       # Packet count per connected master and slave (bytes)
system.membus.pkt_size_system.l2cache.mem_side::system.mem_ctrl.port       955584                       # Cumulative packet size per connected master and slave (bytes)
system.membus.pkt_size_system.l2cache.mem_side::total       955584                       # Cumulative packet size per connected master and slave (bytes)
system.membus.pkt_size::total                  955584                       # Cumulative packet size per connected master and slave (bytes)
system.membus.snoops                                0                       # Total snoops (count)
system.membus.snoopTraffic                          0                       # Total snoop traffic (bytes)
system.membus.snoop_fanout::samples             13591                       # Request fanout histogram
system.membus.snoop_fanout::mean                    0                       # Request fanout histogram
system.membus.snoop_fanout::stdev                   0                       # Request fanout histogram
system.membus.snoop_fanout::underflows              0      0.00%      0.00% # Request fanout histogram
system.membus.snoop_fanout::0                   13591    100.00%    100.00% # Request fanout histogram
system.membus.snoop_fanout::1                       0      0.00%    100.00% # Request fanout histogram
system.membus.snoop_fanout::overflows               0      0.00%    100.00% # Request fanout histogram
system.membus.snoop_fanout::min_value               0                       # Request fanout histogram
system.membus.snoop_fanout::max_value               0                       # Request fanout histogram
system.membus.snoop_fanout::total               13591                       # Request fanout histogram
system.membus.reqLayer2.occupancy            11396231                       # Layer occupancy (ticks)
system.membus.reqLayer2.utilization               1.0                       # Layer utilization (%)
system.membus.respLayer0.occupancy           29509469                       # Layer occupancy (ticks)
system.membus.respLayer0.utilization              2.6                       # Layer utilization (%)
system.l2bus.pwrStateResidencyTicks::UNDEFINED   1135301200                       # Cumulative time (in ticks) in various power states
system.l2bus.trans_dist::ReadResp               17608                       # Transaction distribution
system.l2bus.trans_dist::WritebackDirty          4133                       # Transaction distribution
system.l2bus.trans_dist::CleanEvict             23891                       # Transaction distribution
system.l2bus.trans_dist::HardPFReq                972                       # Transaction distribution
system.l2bus.trans_dist::UpgradeReq                 1                       # Transaction distribution
system.l2bus.trans_dist::UpgradeResp                1                       # Transaction distribution
system.l2bus.trans_dist::ReadExReq               2146                       # Transaction distribution
system.l2bus.trans_dist::ReadExResp              2146                       # Transaction distribution
system.l2bus.trans_dist::ReadSharedReq          17608                       # Transaction distribution
system.l2bus.pkt_count_system.cpu.icache.mem_side::system.l2cache.cpu_side         8326                       # Packet count per connected master and slave (bytes)
system.l2bus.pkt_count_system.cpu.dcache.mem_side::system.l2cache.cpu_side        49654                       # Packet count per connected master and slave (bytes)
system.l2bus.pkt_count::total                   57980                       # Packet count per connected master and slave (bytes)
system.l2bus.pkt_size_system.cpu.icache.mem_side::system.l2cache.cpu_side       182976                       # Cumulative packet size per connected master and slave (bytes)
system.l2bus.pkt_size_system.cpu.dcache.mem_side::system.l2cache.cpu_side      1259840                       # Cumulative packet size per connected master and slave (bytes)
system.l2bus.pkt_size::total                  1442816                       # Cumulative packet size per connected master and slave (bytes)
system.l2bus.snoops                             10526                       # Total snoops (count)
system.l2bus.snoopTraffic                       85952                       # Total snoop traffic (bytes)
system.l2bus.snoop_fanout::samples              30278                       # Request fanout histogram
system.l2bus.snoop_fanout::mean              0.014796                       # Request fanout histogram
system.l2bus.snoop_fanout::stdev             0.120738                       # Request fanout histogram
system.l2bus.snoop_fanout::underflows               0      0.00%      0.00% # Request fanout histogram
system.l2bus.snoop_fanout::0                    29830     98.52%     98.52% # Request fanout histogram
system.l2bus.snoop_fanout::1                      448      1.48%    100.00% # Request fanout histogram
system.l2bus.snoop_fanout::2                        0      0.00%    100.00% # Request fanout histogram
system.l2bus.snoop_fanout::overflows                0      0.00%    100.00% # Request fanout histogram
system.l2bus.snoop_fanout::min_value                0                       # Request fanout histogram
system.l2bus.snoop_fanout::max_value                1                       # Request fanout histogram
system.l2bus.snoop_fanout::total                30278                       # Request fanout histogram
system.l2bus.respLayer1.occupancy            20271199                       # Layer occupancy (ticks)
system.l2bus.respLayer1.utilization               1.8                       # Layer utilization (%)
system.l2bus.reqLayer0.occupancy             18972614                       # Layer occupancy (ticks)
system.l2bus.reqLayer0.utilization                1.7                       # Layer utilization (%)
system.l2bus.respLayer0.occupancy             3435198                       # Layer occupancy (ticks)
system.l2bus.respLayer0.utilization               0.3                       # Layer utilization (%)
system.clk_domain.clock                           400                       # Clock period in ticks
system.clk_domain.voltage_domain.voltage            1                       # Voltage in Volts
system.cpu.pwrStateResidencyTicks::ON      1135301200                       # Cumulative time (in ticks) in various power states
system.cpu.icache.pwrStateResidencyTicks::UNDEFINED   1135301200                       # Cumulative time (in ticks) in various power states
system.cpu.icache.demand_hits::.cpu.inst       261684                       # number of demand (read+write) hits
system.cpu.icache.demand_hits::total           261684                       # number of demand (read+write) hits
system.cpu.icache.overall_hits::.cpu.inst       261684                       # number of overall hits
system.cpu.icache.overall_hits::total          261684                       # number of overall hits
system.cpu.icache.demand_misses::.cpu.inst         3551                       # number of demand (read+write) misses
system.cpu.icache.demand_misses::total           3551                       # number of demand (read+write) misses
system.cpu.icache.overall_misses::.cpu.inst         3551                       # number of overall misses
system.cpu.icache.overall_misses::total          3551                       # number of overall misses
system.cpu.icache.demand_miss_latency::.cpu.inst    176779600                       # number of demand (read+write) miss cycles
system.cpu.icache.demand_miss_latency::total    176779600                       # number of demand (read+write) miss cycles
system.cpu.icache.overall_miss_latency::.cpu.inst    176779600                       # number of overall miss cycles
system.cpu.icache.overall_miss_latency::total    176779600                       # number of overall miss cycles
system.cpu.icache.demand_accesses::.cpu.inst       265235                       # number of demand (read+write) accesses
system.cpu.icache.demand_accesses::total       265235                       # number of demand (read+write) accesses
system.cpu.icache.overall_accesses::.cpu.inst       265235                       # number of overall (read+write) accesses
system.cpu.icache.overall_accesses::total       265235                       # number of overall (read+write) accesses
system.cpu.icache.demand_miss_rate::.cpu.inst     0.013388                       # miss rate for demand accesses
system.cpu.icache.demand_miss_rate::total     0.013388                       # miss rate for demand accesses
system.cpu.icache.overall_miss_rate::.cpu.inst     0.013388                       # miss rate for overall accesses
system.cpu.icache.overall_miss_rate::total     0.013388                       # miss rate for overall accesses
system.cpu.icache.demand_avg_miss_latency::.cpu.inst 49783.047029                       # average overall miss latency
system.cpu.icache.demand_avg_miss_latency::total 49783.047029                       # average overall miss latency
system.cpu.icache.overall_avg_miss_latency::.cpu.inst 49783.047029                       # average overall miss latency
system.cpu.icache.overall_avg_miss_latency::total 49783.047029                       # average overall miss latency
system.cpu.icache.blocked_cycles::no_mshrs          187                       # number of cycles access was blocked
system.cpu.icache.blocked_cycles::no_targets            0                       # number of cycles access was blocked
system.cpu.icache.blocked::no_mshrs                 4                       # number of cycles access was blocked
system.cpu.icache.blocked::no_targets               0                       # number of cycles access was blocked
system.cpu.icache.avg_blocked_cycles::no_mshrs    46.750000                       # average number of cycles each access was blocked
system.cpu.icache.avg_blocked_cycles::no_targets          nan                       # average number of cycles each access was blocked
system.cpu.icache.demand_mshr_hits::.cpu.inst          689                       # number of demand (read+write) MSHR hits
system.cpu.icache.demand_mshr_hits::total          689                       # number of demand (read+write) MSHR hits
system.cpu.icache.overall_mshr_hits::.cpu.inst          689                       # number of overall MSHR hits
system.cpu.icache.overall_mshr_hits::total          689                       # number of overall MSHR hits
system.cpu.icache.demand_mshr_misses::.cpu.inst         2862                       # number of demand (read+write) MSHR misses
system.cpu.icache.demand_mshr_misses::total         2862                       # number of demand (read+write) MSHR misses
system.cpu.icache.overall_mshr_misses::.cpu.inst         2862                       # number of overall MSHR misses
system.cpu.icache.overall_mshr_misses::total         2862                       # number of overall MSHR misses
system.cpu.icache.demand_mshr_miss_latency::.cpu.inst    143821600                       # number of demand (read+write) MSHR miss cycles
system.cpu.icache.demand_mshr_miss_latency::total    143821600                       # number of demand (read+write) MSHR miss cycles
system.cpu.icache.overall_mshr_miss_latency::.cpu.inst    143821600                       # number of overall MSHR miss cycles
system.cpu.icache.overall_mshr_miss_latency::total    143821600                       # number of overall MSHR miss cycles
system.cpu.icache.demand_mshr_miss_rate::.cpu.inst     0.010790                       # mshr miss rate for demand accesses
system.cpu.icache.demand_mshr_miss_rate::total     0.010790                       # mshr miss rate for demand accesses
system.cpu.icache.overall_mshr_miss_rate::.cpu.inst     0.010790                       # mshr miss rate for overall accesses
system.cpu.icache.overall_mshr_miss_rate::total     0.010790                       # mshr miss rate for overall accesses
system.cpu.icache.demand_avg_mshr_miss_latency::.cpu.inst 50252.131377                       # average overall mshr miss latency
system.cpu.icache.demand_avg_mshr_miss_latency::total 50252.131377                       # average overall mshr miss latency
system.cpu.icache.overall_avg_mshr_miss_latency::.cpu.inst 50252.131377                       # average overall mshr miss latency
system.cpu.icache.overall_avg_mshr_miss_latency::total 50252.131377                       # average overall mshr miss latency
system.cpu.icache.replacements                   2605                       # number of replacements
system.cpu.icache.ReadReq_hits::.cpu.inst       261684                       # number of ReadReq hits
system.cpu.icache.ReadReq_hits::total          261684                       # number of ReadReq hits
system.cpu.icache.ReadReq_misses::.cpu.inst         3551                       # number of ReadReq misses
system.cpu.icache.ReadReq_misses::total          3551                       # number of ReadReq misses
system.cpu.icache.ReadReq_miss_latency::.cpu.inst    176779600                       # number of ReadReq miss cycles
system.cpu.icache.ReadReq_miss_latency::total    176779600                       # number of ReadReq miss cycles
system.cpu.icache.ReadReq_accesses::.cpu.inst       265235                       # number of ReadReq accesses(hits+misses)
system.cpu.icache.ReadReq_accesses::total       265235                       # number of ReadReq accesses(hits+misses)
system.cpu.icache.ReadReq_miss_rate::.cpu.inst     0.013388                       # miss rate for ReadReq accesses
system.cpu.icache.ReadReq_miss_rate::total     0.013388                       # miss rate for ReadReq accesses
system.cpu.icache.ReadReq_avg_miss_latency::.cpu.inst 49783.047029                       # average ReadReq miss latency
system.cpu.icache.ReadReq_avg_miss_latency::total 49783.047029                       # average ReadReq miss latency
system.cpu.icache.ReadReq_mshr_hits::.cpu.inst          689                       # number of ReadReq MSHR hits
system.cpu.icache.ReadReq_mshr_hits::total          689                       # number of ReadReq MSHR hits
system.cpu.icache.ReadReq_mshr_misses::.cpu.inst         2862                       # number of ReadReq MSHR misses
system.cpu.icache.ReadReq_mshr_misses::total         2862                       # number of ReadReq MSHR misses
system.cpu.icache.ReadReq_mshr_miss_latency::.cpu.inst    143821600                       # number of ReadReq MSHR miss cycles
system.cpu.icache.ReadReq_mshr_miss_latency::total    143821600                       # number of ReadReq MSHR miss cycles
system.cpu.icache.ReadReq_mshr_miss_rate::.cpu.inst     0.010790                       # mshr miss rate for ReadReq accesses
system.cpu.icache.ReadReq_mshr_miss_rate::total     0.010790                       # mshr miss rate for ReadReq accesses
system.cpu.icache.ReadReq_avg_mshr_miss_latency::.cpu.inst 50252.131377                       # average ReadReq mshr miss latency
system.cpu.icache.ReadReq_avg_mshr_miss_latency::total 50252.131377                       # average ReadReq mshr miss latency
system.cpu.icache.prefetcher.pwrStateResidencyTicks::UNDEFINED   1135301200                       # Cumulative time (in ticks) in various power states
system.cpu.icache.tags.pwrStateResidencyTicks::UNDEFINED   1135301200                       # Cumulative time (in ticks) in various power states
system.cpu.icache.tags.tagsinuse           253.552649                       # Cycle average of tags in use
system.cpu.icache.tags.total_refs              233404                       # Total number of references to valid blocks.
system.cpu.icache.tags.sampled_refs              2606                       # Sample count of references to valid blocks.
system.cpu.icache.tags.avg_refs             89.564083                       # Average number of references to valid blocks.
system.cpu.icache.tags.warmup_cycle             66400                       # Cycle when the warmup percentage was hit.
system.cpu.icache.tags.occ_blocks::.cpu.inst   253.552649                       # Average occupied blocks per requestor
system.cpu.icache.tags.occ_percent::.cpu.inst     0.990440                       # Average percentage of cache occupancy
system.cpu.icache.tags.occ_percent::total     0.990440                       # Average percentage of cache occupancy
system.cpu.icache.tags.occ_task_id_blocks::1024          256                       # Occupied blocks per task id
system.cpu.icache.tags.age_task_id_blocks_1024::0           97                       # Occupied blocks per task id
system.cpu.icache.tags.age_task_id_blocks_1024::1          124                       # Occupied blocks per task id
system.cpu.icache.tags.age_task_id_blocks_1024::2           32                       # Occupied blocks per task id
system.cpu.icache.tags.age_task_id_blocks_1024::3            3                       # Occupied blocks per task id
system.cpu.icache.tags.occ_task_id_percent::1024            1                       # Percentage of cache occupancy per task id
system.cpu.icache.tags.tag_accesses            533332                       # Number of tag accesses
system.cpu.icache.tags.data_accesses           533332                       # Number of data accesses
system.cpu.dtb.walker.pwrStateResidencyTicks::UNDEFINED   1135301200                       # Cumulative time (in ticks) in various power states
system.cpu.interrupts.clk_domain.clock           6400                       # Clock period in ticks
system.cpu.itb.walker.pwrStateResidencyTicks::UNDEFINED   1135301200                       # Cumulative time (in ticks) in various power states
system.cpu.dcache.pwrStateResidencyTicks::UNDEFINED   1135301200                       # Cumulative time (in ticks) in various power states
system.cpu.dcache.demand_hits::.cpu.data       719201                       # number of demand (read+write) hits
system.cpu.dcache.demand_hits::total           719201                       # number of demand (read+write) hits
system.cpu.dcache.overall_hits::.cpu.data       719201                       # number of overall hits
system.cpu.dcache.overall_hits::total          719201                       # number of overall hits
system.cpu.dcache.demand_misses::.cpu.data        34546                       # number of demand (read+write) misses
system.cpu.dcache.demand_misses::total          34546                       # number of demand (read+write) misses
system.cpu.dcache.overall_misses::.cpu.data        34546                       # number of overall misses
system.cpu.dcache.overall_misses::total         34546                       # number of overall misses
system.cpu.dcache.demand_miss_latency::.cpu.data   1679418800                       # number of demand (read+write) miss cycles
system.cpu.dcache.demand_miss_latency::total   1679418800                       # number of demand (read+write) miss cycles
system.cpu.dcache.overall_miss_latency::.cpu.data   1679418800                       # number of overall miss cycles
system.cpu.dcache.overall_miss_latency::total   1679418800                       # number of overall miss cycles
system.cpu.dcache.demand_accesses::.cpu.data       753747                       # number of demand (read+write) accesses
system.cpu.dcache.demand_accesses::total       753747                       # number of demand (read+write) accesses
system.cpu.dcache.overall_accesses::.cpu.data       753747                       # number of overall (read+write) accesses
system.cpu.dcache.overall_accesses::total       753747                       # number of overall (read+write) accesses
system.cpu.dcache.demand_miss_rate::.cpu.data     0.045832                       # miss rate for demand accesses
system.cpu.dcache.demand_miss_rate::total     0.045832                       # miss rate for demand accesses
system.cpu.dcache.overall_miss_rate::.cpu.data     0.045832                       # miss rate for overall accesses
system.cpu.dcache.overall_miss_rate::total     0.045832                       # miss rate for overall accesses
system.cpu.dcache.demand_avg_miss_latency::.cpu.data 48613.987148                       # average overall miss latency
system.cpu.dcache.demand_avg_miss_latency::total 48613.987148                       # average overall miss latency
system.cpu.dcache.overall_avg_miss_latency::.cpu.data 48613.987148                       # average overall miss latency
system.cpu.dcache.overall_avg_miss_latency::total 48613.987148                       # average overall miss latency
system.cpu.dcache.blocked_cycles::no_mshrs        29135                       # number of cycles access was blocked
system.cpu.dcache.blocked_cycles::no_targets          138                       # number of cycles access was blocked
system.cpu.dcache.blocked::no_mshrs               739                       # number of cycles access was blocked
system.cpu.dcache.blocked::no_targets               1                       # number of cycles access was blocked
system.cpu.dcache.avg_blocked_cycles::no_mshrs    39.424899                       # average number of cycles each access was blocked
system.cpu.dcache.avg_blocked_cycles::no_targets          138                       # average number of cycles each access was blocked
system.cpu.dcache.unused_prefetches              1752                       # number of HardPF blocks evicted w/o reference
system.cpu.dcache.writebacks::.writebacks         2793                       # number of writebacks
system.cpu.dcache.writebacks::total              2793                       # number of writebacks
system.cpu.dcache.demand_mshr_hits::.cpu.data        22041                       # number of demand (read+write) MSHR hits
system.cpu.dcache.demand_mshr_hits::total        22041                       # number of demand (read+write) MSHR hits
system.cpu.dcache.overall_mshr_hits::.cpu.data        22041                       # number of overall MSHR hits
system.cpu.dcache.overall_mshr_hits::total        22041                       # number of overall MSHR hits
system.cpu.dcache.demand_mshr_misses::.cpu.data        12505                       # number of demand (read+write) MSHR misses
system.cpu.dcache.demand_mshr_misses::total        12505                       # number of demand (read+write) MSHR misses
system.cpu.dcache.overall_mshr_misses::.cpu.data        12505                       # number of overall MSHR misses
system.cpu.dcache.overall_mshr_misses::.cpu.dcache.prefetcher         4388                       # number of overall MSHR misses
system.cpu.dcache.overall_mshr_misses::total        16893                       # number of overall MSHR misses
system.cpu.dcache.demand_mshr_miss_latency::.cpu.data    577835600                       # number of demand (read+write) MSHR miss cycles
system.cpu.dcache.demand_mshr_miss_latency::total    577835600                       # number of demand (read+write) MSHR miss cycles
system.cpu.dcache.overall_mshr_miss_latency::.cpu.data    577835600                       # number of overall MSHR miss cycles
system.cpu.dcache.overall_mshr_miss_latency::.cpu.dcache.prefetcher    251083291                       # number of overall MSHR miss cycles
system.cpu.dcache.overall_mshr_miss_latency::total    828918891                       # number of overall MSHR miss cycles
system.cpu.dcache.demand_mshr_miss_rate::.cpu.data     0.016590                       # mshr miss rate for demand accesses
system.cpu.dcache.demand_mshr_miss_rate::total     0.016590                       # mshr miss rate for demand accesses
system.cpu.dcache.overall_mshr_miss_rate::.cpu.data     0.016590                       # mshr miss rate for overall accesses
system.cpu.dcache.overall_mshr_miss_rate::.cpu.dcache.prefetcher          inf                       # mshr miss rate for overall accesses
system.cpu.dcache.overall_mshr_miss_rate::total     0.022412                       # mshr miss rate for overall accesses
system.cpu.dcache.demand_avg_mshr_miss_latency::.cpu.data 46208.364654                       # average overall mshr miss latency
system.cpu.dcache.demand_avg_mshr_miss_latency::total 46208.364654                       # average overall mshr miss latency
system.cpu.dcache.overall_avg_mshr_miss_latency::.cpu.data 46208.364654                       # average overall mshr miss latency
system.cpu.dcache.overall_avg_mshr_miss_latency::.cpu.dcache.prefetcher 57220.440064                       # average overall mshr miss latency
system.cpu.dcache.overall_avg_mshr_miss_latency::total 49068.779435                       # average overall mshr miss latency
system.cpu.dcache.replacements                  15868                       # number of replacements
system.cpu.dcache.ReadReq_hits::.cpu.data       530271                       # number of ReadReq hits
system.cpu.dcache.ReadReq_hits::total          530271                       # number of ReadReq hits
system.cpu.dcache.ReadReq_misses::.cpu.data        32365                       # number of ReadReq misses
system.cpu.dcache.ReadReq_misses::total         32365                       # number of ReadReq misses
system.cpu.dcache.ReadReq_miss_latency::.cpu.data   1571104800                       # number of ReadReq miss cycles
system.cpu.dcache.ReadReq_miss_latency::total   1571104800                       # number of ReadReq miss cycles
system.cpu.dcache.ReadReq_accesses::.cpu.data       562636                       # number of ReadReq accesses(hits+misses)
system.cpu.dcache.ReadReq_accesses::total       562636                       # number of ReadReq accesses(hits+misses)
system.cpu.dcache.ReadReq_miss_rate::.cpu.data     0.057524                       # miss rate for ReadReq accesses
system.cpu.dcache.ReadReq_miss_rate::total     0.057524                       # miss rate for ReadReq accesses
system.cpu.dcache.ReadReq_avg_miss_latency::.cpu.data 48543.327669                       # average ReadReq miss latency
system.cpu.dcache.ReadReq_avg_miss_latency::total 48543.327669                       # average ReadReq miss latency
system.cpu.dcache.ReadReq_mshr_hits::.cpu.data        22007                       # number of ReadReq MSHR hits
system.cpu.dcache.ReadReq_mshr_hits::total        22007                       # number of ReadReq MSHR hits
system.cpu.dcache.ReadReq_mshr_misses::.cpu.data        10358                       # number of ReadReq MSHR misses
system.cpu.dcache.ReadReq_mshr_misses::total        10358                       # number of ReadReq MSHR misses
system.cpu.dcache.ReadReq_mshr_miss_latency::.cpu.data    472420400                       # number of ReadReq MSHR miss cycles
system.cpu.dcache.ReadReq_mshr_miss_latency::total    472420400                       # number of ReadReq MSHR miss cycles
system.cpu.dcache.ReadReq_mshr_miss_rate::.cpu.data     0.018410                       # mshr miss rate for ReadReq accesses
system.cpu.dcache.ReadReq_mshr_miss_rate::total     0.018410                       # mshr miss rate for ReadReq accesses
system.cpu.dcache.ReadReq_avg_mshr_miss_latency::.cpu.data 45609.229581                       # average ReadReq mshr miss latency
system.cpu.dcache.ReadReq_avg_mshr_miss_latency::total 45609.229581                       # average ReadReq mshr miss latency
system.cpu.dcache.WriteReq_hits::.cpu.data       188930                       # number of WriteReq hits
system.cpu.dcache.WriteReq_hits::total         188930                       # number of WriteReq hits
system.cpu.dcache.WriteReq_misses::.cpu.data         2181                       # number of WriteReq misses
system.cpu.dcache.WriteReq_misses::total         2181                       # number of WriteReq misses
system.cpu.dcache.WriteReq_miss_latency::.cpu.data    108314000                       # number of WriteReq miss cycles
system.cpu.dcache.WriteReq_miss_latency::total    108314000                       # number of WriteReq miss cycles
system.cpu.dcache.WriteReq_accesses::.cpu.data       191111                       # number of WriteReq accesses(hits+misses)
system.cpu.dcache.WriteReq_accesses::total       191111                       # number of WriteReq accesses(hits+misses)
system.cpu.dcache.WriteReq_miss_rate::.cpu.data     0.011412                       # miss rate for WriteReq accesses
system.cpu.dcache.WriteReq_miss_rate::total     0.011412                       # miss rate for WriteReq accesses
system.cpu.dcache.WriteReq_avg_miss_latency::.cpu.data 49662.540119                       # average WriteReq miss latency
system.cpu.dcache.WriteReq_avg_miss_latency::total 49662.540119                       # average WriteReq miss latency
system.cpu.dcache.WriteReq_mshr_hits::.cpu.data           34                       # number of WriteReq MSHR hits
system.cpu.dcache.WriteReq_mshr_hits::total           34                       # number of WriteReq MSHR hits
system.cpu.dcache.WriteReq_mshr_misses::.cpu.data         2147                       # number of WriteReq MSHR misses
[...]
system.l2cache.demand_mshr_misses::.cpu.data          186                       # number of demand (read+write) MSHR misses
system.l2cache.demand_mshr_misses::.cpu.dcache.prefetcher           37                       # number of demand (read+write) MSHR misses
system.l2cache.demand_mshr_misses::total          490                       # number of demand (read+write) MSHR misses
system.l2cache.overall_mshr_misses::.cpu.inst          267                       # number of overall MSHR misses
system.l2cache.overall_mshr_misses::.cpu.data          186                       # number of overall MSHR misses
system.l2cache.overall_mshr_misses::.cpu.dcache.prefetcher           37                       # number of overall MSHR misses
system.l2cache.overall_mshr_misses::total          490                       # number of overall MSHR misses
system.l2cache.demand_mshr_miss_latency::.cpu.inst     15781200                       # number of demand (read+write) MSHR miss cycles
system.l2cache.demand_mshr_miss_latency::.cpu.data     11146000                       # number of demand (read+write) MSHR miss cycles
system.l2cache.demand_mshr_miss_latency::.cpu.dcache.prefetcher      2205964                       # number of demand (read+write) MSHR miss cycles
system.l2cache.demand_mshr_miss_latency::total     29133164                       # number of demand (read+write) MSHR miss cycles
system.l2cache.overall_mshr_miss_latency::.cpu.inst     15781200                       # number of overall MSHR miss cycles
system.l2cache.overall_mshr_miss_latency::.cpu.data     11146000                       # number of overall MSHR miss cycles
system.l2cache.overall_mshr_miss_latency::.cpu.dcache.prefetcher      2205964                       # number of overall MSHR miss cycles
system.l2cache.overall_mshr_miss_latency::total     29133164                       # number of overall MSHR miss cycles
system.l2cache.demand_mshr_miss_rate::.cpu.inst     0.498134                       # mshr miss rate for demand accesses
system.l2cache.demand_mshr_miss_rate::.cpu.data     0.586751                       # mshr miss rate for demand accesses
system.l2cache.demand_mshr_miss_rate::.cpu.dcache.prefetcher     0.840909                       # mshr miss rate for demand accesses
system.l2cache.demand_mshr_miss_rate::total     0.546265                       # mshr miss rate for demand accesses
system.l2cache.overall_mshr_miss_rate::.cpu.inst     0.498134                       # mshr miss rate for overall accesses
system.l2cache.overall_mshr_miss_rate::.cpu.data     0.586751                       # mshr miss rate for overall accesses
system.l2cache.overall_mshr_miss_rate::.cpu.dcache.prefetcher     0.840909                       # mshr miss rate for overall accesses
system.l2cache.overall_mshr_miss_rate::total     0.546265                       # mshr miss rate for overall accesses
system.l2cache.demand_avg_mshr_miss_latency::.cpu.inst 59105.617978                       # average overall mshr miss latency
system.l2cache.demand_avg_mshr_miss_latency::.cpu.data 59924.731183                       # average overall mshr miss latency
system.l2cache.demand_avg_mshr_miss_latency::.cpu.dcache.prefetcher 59620.648649                       # average overall mshr miss latency
system.l2cache.demand_avg_mshr_miss_latency::total 59455.436735                       # average overall mshr miss latency
system.l2cache.overall_avg_mshr_miss_latency::.cpu.inst 59105.617978                       # average overall mshr miss latency
system.l2cache.overall_avg_mshr_miss_latency::.cpu.data 59924.731183                       # average overall mshr miss latency
system.l2cache.overall_avg_mshr_miss_latency::.cpu.dcache.prefetcher 59620.648649                       # average overall mshr miss latency
system.l2cache.overall_avg_mshr_miss_latency::total 59455.436735                       # average overall mshr miss latency
system.l2cache.replacements                       498                       # number of replacements
system.l2cache.WritebackDirty_hits::.writebacks          123                       # number of WritebackDirty hits
system.l2cache.WritebackDirty_hits::total          123                       # number of WritebackDirty hits
system.l2cache.WritebackDirty_accesses::.writebacks          123                       # number of WritebackDirty accesses(hits+misses)
system.l2cache.WritebackDirty_accesses::total          123                       # number of WritebackDirty accesses(hits+misses)
system.l2cache.CleanEvict_mshr_misses::.writebacks           12                       # number of CleanEvict MSHR misses
system.l2cache.CleanEvict_mshr_misses::total           12                       # number of CleanEvict MSHR misses
system.l2cache.CleanEvict_mshr_miss_rate::.writebacks          inf                       # mshr miss rate for CleanEvict accesses
system.l2cache.CleanEvict_mshr_miss_rate::total          inf                       # mshr miss rate for CleanEvict accesses
system.l2cache.ReadExReq_hits::.cpu.data           12                       # number of ReadExReq hits
system.l2cache.ReadExReq_hits::total               12                       # number of ReadExReq hits
system.l2cache.ReadExReq_misses::.cpu.data           69                       # number of ReadExReq misses
system.l2cache.ReadExReq_misses::total             69                       # number of ReadExReq misses
system.l2cache.ReadExReq_miss_latency::.cpu.data      4510000                       # number of ReadExReq miss cycles
system.l2cache.ReadExReq_miss_latency::total      4510000                       # number of ReadExReq miss cycles
system.l2cache.ReadExReq_accesses::.cpu.data           81                       # number of ReadExReq accesses(hits+misses)
system.l2cache.ReadExReq_accesses::total           81                       # number of ReadExReq accesses(hits+misses)
system.l2cache.ReadExReq_miss_rate::.cpu.data     0.851852                       # miss rate for ReadExReq accesses
system.l2cache.ReadExReq_miss_rate::total     0.851852                       # miss rate for ReadExReq accesses
system.l2cache.ReadExReq_avg_miss_latency::.cpu.data 65362.318841                       # average ReadExReq miss latency
system.l2cache.ReadExReq_avg_miss_latency::total 65362.318841                       # average ReadExReq miss latency
system.l2cache.ReadExReq_mshr_misses::.cpu.data           69                       # number of ReadExReq MSHR misses
system.l2cache.ReadExReq_mshr_misses::total           69                       # number of ReadExReq MSHR misses
system.l2cache.ReadExReq_mshr_miss_latency::.cpu.data      3958000                       # number of ReadExReq MSHR miss cycles
system.l2cache.ReadExReq_mshr_miss_latency::total      3958000                       # number of ReadExReq MSHR miss cycles
system.l2cache.ReadExReq_mshr_miss_rate::.cpu.data     0.851852                       # mshr miss rate for ReadExReq accesses
system.l2cache.ReadExReq_mshr_miss_rate::total     0.851852                       # mshr miss rate for ReadExReq accesses
system.l2cache.ReadExReq_avg_mshr_miss_latency::.cpu.data 57362.318841                       # average ReadExReq mshr miss latency
system.l2cache.ReadExReq_avg_mshr_miss_latency::total 57362.318841                       # average ReadExReq mshr miss latency
system.l2cache.ReadSharedReq_hits::.cpu.inst          269                       # number of ReadSharedReq hits
system.l2cache.ReadSharedReq_hits::.cpu.data          119                       # number of ReadSharedReq hits
system.l2cache.ReadSharedReq_hits::.cpu.dcache.prefetcher            7                       # number of ReadSharedReq hits
system.l2cache.ReadSharedReq_hits::total          395                       # number of ReadSharedReq hits
system.l2cache.ReadSharedReq_misses::.cpu.inst          267                       # number of ReadSharedReq misses
system.l2cache.ReadSharedReq_misses::.cpu.data          117                       # number of ReadSharedReq misses
system.l2cache.ReadSharedReq_misses::.cpu.dcache.prefetcher           37                       # number of ReadSharedReq misses
system.l2cache.ReadSharedReq_misses::total          421                       # number of ReadSharedReq misses
system.l2cache.ReadSharedReq_miss_latency::.cpu.inst     17909200                       # number of ReadSharedReq miss cycles
system.l2cache.ReadSharedReq_miss_latency::.cpu.data      8124000                       # number of ReadSharedReq miss cycles
system.l2cache.ReadSharedReq_miss_latency::.cpu.dcache.prefetcher      2501964                       # number of ReadSharedReq miss cycles
system.l2cache.ReadSharedReq_miss_latency::total     28535164                       # number of ReadSharedReq miss cycles
system.l2cache.ReadSharedReq_accesses::.cpu.inst          536                       # number of ReadSharedReq accesses(hits+misses)
system.l2cache.ReadSharedReq_accesses::.cpu.data          236                       # number of ReadSharedReq accesses(hits+misses)
system.l2cache.ReadSharedReq_accesses::.cpu.dcache.prefetcher           44                       # number of ReadSharedReq accesses(hits+misses)
system.l2cache.ReadSharedReq_accesses::total          816                       # number of ReadSharedReq accesses(hits+misses)
system.l2cache.ReadSharedReq_miss_rate::.cpu.inst     0.498134                       # miss rate for ReadSharedReq accesses
system.l2cache.ReadSharedReq_miss_rate::.cpu.data     0.495763                       # miss rate for ReadSharedReq accesses
system.l2cache.ReadSharedReq_miss_rate::.cpu.dcache.prefetcher     0.840909                       # miss rate for ReadSharedReq accesses
system.l2cache.ReadSharedReq_miss_rate::total     0.515931                       # miss rate for ReadSharedReq accesses
system.l2cache.ReadSharedReq_avg_miss_latency::.cpu.inst 67075.655431                       # average ReadSharedReq miss latency
system.l2cache.ReadSharedReq_avg_miss_latency::.cpu.data 69435.897436                       # average ReadSharedReq miss latency
system.l2cache.ReadSharedReq_avg_miss_latency::.cpu.dcache.prefetcher 67620.648649                       # average ReadSharedReq miss latency
system.l2cache.ReadSharedReq_avg_miss_latency::total 67779.486936                       # average ReadSharedReq miss latency
system.l2cache.ReadSharedReq_mshr_misses::.cpu.inst          267                       # number of ReadSharedReq MSHR misses
system.l2cache.ReadSharedReq_mshr_misses::.cpu.data          117                       # number of ReadSharedReq MSHR misses
system.l2cache.ReadSharedReq_mshr_misses::.cpu.dcache.prefetcher           37                       # number of ReadSharedReq MSHR misses
system.l2cache.ReadSharedReq_mshr_misses::total          421                       # number of ReadSharedReq MSHR misses
system.l2cache.ReadSharedReq_mshr_miss_latency::.cpu.inst     15781200                       # number of ReadSharedReq MSHR miss cycles
system.l2cache.ReadSharedReq_mshr_miss_latency::.cpu.data      7188000                       # number of ReadSharedReq MSHR miss cycles
system.l2cache.ReadSharedReq_mshr_miss_latency::.cpu.dcache.prefetcher      2205964                       # number of ReadSharedReq MSHR miss cycles
system.l2cache.ReadSharedReq_mshr_miss_latency::total     25175164                       # number of ReadSharedReq MSHR miss cycles
system.l2cache.ReadSharedReq_mshr_miss_rate::.cpu.inst     0.498134                       # mshr miss rate for ReadSharedReq accesses
system.l2cache.ReadSharedReq_mshr_miss_rate::.cpu.data     0.495763                       # mshr miss rate for ReadSharedReq accesses
system.l2cache.ReadSharedReq_mshr_miss_rate::.cpu.dcache.prefetcher     0.840909                       # mshr miss rate for ReadSharedReq accesses
system.l2cache.ReadSharedReq_mshr_miss_rate::total     0.515931                       # mshr miss rate for ReadSharedReq accesses
system.l2cache.ReadSharedReq_avg_mshr_miss_latency::.cpu.inst 59105.617978                       # average ReadSharedReq mshr miss latency
system.l2cache.ReadSharedReq_avg_mshr_miss_latency::.cpu.data 61435.897436                       # average ReadSharedReq mshr miss latency
system.l2cache.ReadSharedReq_avg_mshr_miss_latency::.cpu.dcache.prefetcher 59620.648649                       # average ReadSharedReq mshr miss latency
system.l2cache.ReadSharedReq_avg_mshr_miss_latency::total 59798.489311                       # average ReadSharedReq mshr miss latency
system.l2cache.prefetcher.pwrStateResidencyTicks::UNDEFINED     75614800                       # Cumulative time (in ticks) in various power states
system.l2cache.tags.pwrStateResidencyTicks::UNDEFINED     75614800                       # Cumulative time (in ticks) in various power states
system.l2cache.tags.tagsinuse                    4096                       # Cycle average of tags in use
system.l2cache.tags.total_refs                  13957                       # Total number of references to valid blocks.
system.l2cache.tags.sampled_refs                 4594                       # Sample count of references to valid blocks.
system.l2cache.tags.avg_refs                 3.038093                       # Average number of references to valid blocks.
system.l2cache.tags.warmup_cycle                    0                       # Cycle when the warmup percentage was hit.
system.l2cache.tags.occ_blocks::.writebacks    38.571803                       # Average occupied blocks per requestor
system.l2cache.tags.occ_blocks::.cpu.inst  1114.916547                       # Average occupied blocks per requestor
system.l2cache.tags.occ_blocks::.cpu.data  1853.809656                       # Average occupied blocks per requestor
system.l2cache.tags.occ_blocks::.cpu.dcache.prefetcher   959.628807                       # Average occupied blocks per requestor
system.l2cache.tags.occ_blocks::.l2cache.prefetcher   129.073187                       # Average occupied blocks per requestor
system.l2cache.tags.occ_percent::.writebacks     0.009417                       # Average percentage of cache occupancy
system.l2cache.tags.occ_percent::.cpu.inst     0.272196                       # Average percentage of cache occupancy
system.l2cache.tags.occ_percent::.cpu.data     0.452590                       # Average percentage of cache occupancy
system.l2cache.tags.occ_percent::.cpu.dcache.prefetcher     0.234284                       # Average percentage of cache occupancy
system.l2cache.tags.occ_percent::.l2cache.prefetcher     0.031512                       # Average percentage of cache occupancy
system.l2cache.tags.occ_percent::total              1                       # Average percentage of cache occupancy
system.l2cache.tags.occ_task_id_blocks::1022         1000                       # Occupied blocks per task id
system.l2cache.tags.occ_task_id_blocks::1024         3096                       # Occupied blocks per task id
system.l2cache.tags.age_task_id_blocks_1022::0            7                       # Occupied blocks per task id
system.l2cache.tags.age_task_id_blocks_1022::1           34                       # Occupied blocks per task id
system.l2cache.tags.age_task_id_blocks_1022::2          948                       # Occupied blocks per task id
system.l2cache.tags.age_task_id_blocks_1022::3           11                       # Occupied blocks per task id
system.l2cache.tags.age_task_id_blocks_1024::0          173                       # Occupied blocks per task id
system.l2cache.tags.age_task_id_blocks_1024::1          284                       # Occupied blocks per task id
system.l2cache.tags.age_task_id_blocks_1024::2         2484                       # Occupied blocks per task id
system.l2cache.tags.age_task_id_blocks_1024::3          155                       # Occupied blocks per task id
system.l2cache.tags.occ_task_id_percent::1022     0.244141                       # Percentage of cache occupancy per task id
system.l2cache.tags.occ_task_id_percent::1024     0.755859                       # Percentage of cache occupancy per task id
system.l2cache.tags.tag_accesses                14834                       # Number of tag accesses
system.l2cache.tags.data_accesses               14834                       # Number of data accesses
system.mem_ctrl.pwrStateResidencyTicks::UNDEFINED     75614800                       # Cumulative time (in ticks) in various power states
system.mem_ctrl.bytes_read::.cpu.inst           17024                       # Number of bytes read from this memory
system.mem_ctrl.bytes_read::.cpu.data           11904                       # Number of bytes read from this memory
system.mem_ctrl.bytes_read::.cpu.dcache.prefetcher         2368                       # Number of bytes read from this memory
system.mem_ctrl.bytes_read::total               31296                       # Number of bytes read from this memory
system.mem_ctrl.bytes_inst_read::.cpu.inst        17024                       # Number of instructions bytes read from this memory
system.mem_ctrl.bytes_inst_read::total          17024                       # Number of instructions bytes read from this memory
system.mem_ctrl.bytes_written::.writebacks         1984                       # Number of bytes written to this memory
system.mem_ctrl.bytes_written::total             1984                       # Number of bytes written to this memory
system.mem_ctrl.num_reads::.cpu.inst              266                       # Number of read requests responded to by this memory
system.mem_ctrl.num_reads::.cpu.data              186                       # Number of read requests responded to by this memory
system.mem_ctrl.num_reads::.cpu.dcache.prefetcher           37                       # Number of read requests responded to by this memory
system.mem_ctrl.num_reads::total                  489                       # Number of read requests responded to by this memory
system.mem_ctrl.num_writes::.writebacks            31                       # Number of write requests responded to by this memory
system.mem_ctrl.num_writes::total                  31                       # Number of write requests responded to by this memory
system.mem_ctrl.bw_read::.cpu.inst          225141110                       # Total read bandwidth from this memory (bytes/s)
system.mem_ctrl.bw_read::.cpu.data          157429498                       # Total read bandwidth from this memory (bytes/s)
system.mem_ctrl.bw_read::.cpu.dcache.prefetcher     31316621                       # Total read bandwidth from this memory (bytes/s)
system.mem_ctrl.bw_read::total              413887228                       # Total read bandwidth from this memory (bytes/s)
system.mem_ctrl.bw_inst_read::.cpu.inst     225141110                       # Instruction read bandwidth from this memory (bytes/s)
system.mem_ctrl.bw_inst_read::total         225141110                       # Instruction read bandwidth from this memory (bytes/s)
system.mem_ctrl.bw_write::.writebacks        26238250                       # Write bandwidth from this memory (bytes/s)
system.mem_ctrl.bw_write::total              26238250                       # Write bandwidth from this memory (bytes/s)
system.mem_ctrl.bw_total::.writebacks        26238250                       # Total bandwidth to/from this memory (bytes/s)
system.mem_ctrl.bw_total::.cpu.inst         225141110                       # Total bandwidth to/from this memory (bytes/s)
system.mem_ctrl.bw_total::.cpu.data         157429498                       # Total bandwidth to/from this memory (bytes/s)
system.mem_ctrl.bw_total::.cpu.dcache.prefetcher     31316621                       # Total bandwidth to/from this memory (bytes/s)
system.mem_ctrl.bw_total::total             440125478                       # Total bandwidth to/from this memory (bytes/s)

---------- End Simulation Statistics   ----------
