
---------- Begin Simulation Statistics ----------
final_tick                                 1286664800                       # Number of ticks from beginning of simulation (restored from checkpoints and never reset)
host_inst_rate                                 190010                       # Simulator instruction rate (inst/s)
host_mem_usage                                4406824                       # Number of bytes of host memory used
host_op_rate                                   337700                       # Simulator op (including micro ops) rate (op/s)
host_seconds                                    13.88                       # Real time elapsed on the host
host_tick_rate                               92730331                       # Simulator tick rate (ticks/s)
sim_freq                                 1000000000000                       # Frequency of simulated ticks
sim_insts                                     2636422                       # Number of instructions simulated
sim_ops                                       4685695                       # Number of ops (including micro ops) simulated
sim_seconds                                  0.001287                       # Number of seconds simulated
sim_ticks                                  1286664800                       # Number of ticks simulated
system.cpu.branchPred.BTBCorrect                    0                       # Number of correct BTB predictions (this stat may not work properly.
system.cpu.branchPred.BTBHitPct              0.000000                       # BTB Hit Percentage
system.cpu.branchPred.BTBHits                       0                       # Number of BTB hits
system.cpu.branchPred.BTBLookups               545799                       # Number of BTB lookups
system.cpu.branchPred.RASInCorrect                  8                       # Number of incorrect RAS predictions.
system.cpu.branchPred.condIncorrect             26807                       # Number of conditional branches incorrect
system.cpu.branchPred.condPredicted            573673                       # Number of conditional branches predicted
system.cpu.branchPred.indirectHits             297080                       # Number of indirect target hits.
system.cpu.branchPred.indirectLookups          545799                       # Number of indirect predictor lookups.
system.cpu.branchPred.indirectMisses           248719                       # Number of indirect misses.
system.cpu.branchPred.lookups                  618605                       # Number of BP lookups
system.cpu.branchPred.usedRAS                   20529                       # Number of times the RAS was used to get a target.
system.cpu.branchPredindirectMispredicted        13541                       # Number of mispredicted indirect branches.
system.cpu.cc_regfile_reads                   3006784                       # number of cc regfile reads
system.cpu.cc_regfile_writes                  2311111                       # number of cc regfile writes
system.cpu.commit.amos                              0                       # Number of atomic instructions committed
system.cpu.commit.branchMispredicts             26911                       # The number of times a branch was mispredicted
system.cpu.commit.branches                     461915                       # Number of branches committed
system.cpu.commit.bw_lim_events                767522                       # number cycles where commit BW limit reached
system.cpu.commit.commitNonSpecStalls             743                       # The number of times commit has been forced to stall to communicate backwards
system.cpu.commit.commitSquashedInsts          957674                       # The number of squashed insts skipped by commit
system.cpu.commit.committedInsts              2636422                       # Number of instructions committed
system.cpu.commit.committedOps                4685695                       # Number of ops (including micro ops) committed
system.cpu.commit.committed_per_cycle::samples      2790913                       # Number of insts commited each cycle
system.cpu.commit.committed_per_cycle::mean     1.678911                       # Number of insts commited each cycle
system.cpu.commit.committed_per_cycle::stdev     1.719493                       # Number of insts commited each cycle
system.cpu.commit.committed_per_cycle::underflows            0      0.00%      0.00% # Number of insts commited each cycle
system.cpu.commit.committed_per_cycle::0      1225147     43.90%     43.90% # Number of insts commited each cycle
system.cpu.commit.committed_per_cycle::1       274854      9.85%     53.75% # Number of insts commited each cycle
system.cpu.commit.committed_per_cycle::2       229417      8.22%     61.97% # Number of insts commited each cycle
system.cpu.commit.committed_per_cycle::3       293973     10.53%     72.50% # Number of insts commited each cycle
system.cpu.commit.committed_per_cycle::4       767522     27.50%    100.00% # Number of insts commited each cycle
system.cpu.commit.committed_per_cycle::overflows            0      0.00%    100.00% # Number of insts commited each cycle
system.cpu.commit.committed_per_cycle::min_value            0                       # Number of insts commited each cycle
system.cpu.commit.committed_per_cycle::max_value            4                       # Number of insts commited each cycle
system.cpu.commit.committed_per_cycle::total      2790913                       # Number of insts commited each cycle
system.cpu.commit.fp_insts                     111315                       # Number of committed floating point instructions.
system.cpu.commit.function_calls                18326                       # Number of function calls committed.
system.cpu.commit.int_insts                   4598689                       # Number of committed integer instructions.
system.cpu.commit.loads                        621692                       # Number of loads committed
system.cpu.commit.membars                           1                       # Number of memory barriers committed
system.cpu.commit.op_class_0::No_OpClass        24621      0.53%      0.53% # Class of committed instruction
system.cpu.commit.op_class_0::IntAlu          3667431     78.27%     78.79% # Class of committed instruction
system.cpu.commit.op_class_0::IntMult            7563      0.16%     78.96% # Class of committed instruction
system.cpu.commit.op_class_0::IntDiv            37729      0.81%     79.76% # Class of committed instruction
system.cpu.commit.op_class_0::FloatAdd           4432      0.09%     79.86% # Class of committed instruction
system.cpu.commit.op_class_0::FloatCmp              0      0.00%     79.86% # Class of committed instruction
system.cpu.commit.op_class_0::FloatCvt           1216      0.03%     79.88% # Class of committed instruction
system.cpu.commit.op_class_0::FloatMult             0      0.00%     79.88% # Class of committed instruction
system.cpu.commit.op_class_0::FloatMultAcc            0      0.00%     79.88% # Class of committed instruction
system.cpu.commit.op_class_0::FloatDiv              0      0.00%     79.88% # Class of committed instruction
system.cpu.commit.op_class_0::FloatMisc             0      0.00%     79.88% # Class of committed instruction
system.cpu.commit.op_class_0::FloatSqrt             0      0.00%     79.88% # Class of committed instruction
system.cpu.commit.op_class_0::SimdAdd            6262      0.13%     80.01% # Class of committed instruction
system.cpu.commit.op_class_0::SimdAddAcc            0      0.00%     80.01% # Class of committed instruction
system.cpu.commit.op_class_0::SimdAlu           17435      0.37%     80.39% # Class of committed instruction
system.cpu.commit.op_class_0::SimdCmp               0      0.00%     80.39% # Class of committed instruction
system.cpu.commit.op_class_0::SimdCvt           18360      0.39%     80.78% # Class of committed instruction
system.cpu.commit.op_class_0::SimdMisc          20396      0.44%     81.21% # Class of committed instruction
system.cpu.commit.op_class_0::SimdMult              0      0.00%     81.21% # Class of committed instruction
system.cpu.commit.op_class_0::SimdMultAcc            0      0.00%     81.21% # Class of committed instruction
system.cpu.commit.op_class_0::SimdShift          1229      0.03%     81.24% # Class of committed instruction
system.cpu.commit.op_class_0::SimdShiftAcc            0      0.00%     81.24% # Class of committed instruction
system.cpu.commit.op_class_0::SimdDiv               0      0.00%     81.24% # Class of committed instruction
system.cpu.commit.op_class_0::SimdSqrt              0      0.00%     81.24% # Class of committed instruction
system.cpu.commit.op_class_0::SimdFloatAdd            0      0.00%     81.24% # Class of committed instruction
system.cpu.commit.op_class_0::SimdFloatAlu            0      0.00%     81.24% # Class of committed instruction
system.cpu.commit.op_class_0::SimdFloatCmp            0      0.00%     81.24% # Class of committed instruction
system.cpu.commit.op_class_0::SimdFloatCvt            0      0.00%     81.24% # Class of committed instruction
system.cpu.commit.op_class_0::SimdFloatDiv            0      0.00%     81.24% # Class of committed instruction
system.cpu.commit.op_class_0::SimdFloatMisc            0      0.00%     81.24% # Class of committed instruction
system.cpu.commit.op_class_0::SimdFloatMult            0      0.00%     81.24% # Class of committed instruction
system.cpu.commit.op_class_0::SimdFloatMultAcc            0      0.00%     81.24% # Class of committed instruction
system.cpu.commit.op_class_0::SimdFloatSqrt            0      0.00%     81.24% # Class of committed instruction
system.cpu.commit.op_class_0::SimdReduceAdd            0      0.00%     81.24% # Class of committed instruction
system.cpu.commit.op_class_0::SimdReduceAlu            0      0.00%     81.24% # Class of committed instruction
system.cpu.commit.op_class_0::SimdReduceCmp            0      0.00%     81.24% # Class of committed instruction
system.cpu.commit.op_class_0::SimdFloatReduceAdd            0      0.00%     81.24% # Class of committed instruction
system.cpu.commit.op_class_0::SimdFloatReduceCmp            0      0.00%     81.24% # Class of committed instruction
system.cpu.commit.op_class_0::SimdAes               0      0.00%     81.24% # Class of committed instruction
system.cpu.commit.op_class_0::SimdAesMix            0      0.00%     81.24% # Class of committed instruction
system.cpu.commit.op_class_0::SimdSha1Hash            0      0.00%     81.24% # Class of committed instruction
system.cpu.commit.op_class_0::SimdSha1Hash2            0      0.00%     81.24% # Class of committed instruction
system.cpu.commit.op_class_0::SimdSha256Hash            0      0.00%     81.24% # Class of committed instruction
system.cpu.commit.op_class_0::SimdSha256Hash2            0      0.00%     81.24% # Class of committed instruction
system.cpu.commit.op_class_0::SimdShaSigma2            0      0.00%     81.24% # Class of committed instruction
system.cpu.commit.op_class_0::SimdShaSigma3            0      0.00%     81.24% # Class of committed instruction
system.cpu.commit.op_class_0::SimdPredAlu            0      0.00%     81.24% # Class of committed instruction
system.cpu.commit.op_class_0::MemRead          598308     12.77%     94.01% # Class of committed instruction
system.cpu.commit.op_class_0::MemWrite         244194      5.21%     99.22% # Class of committed instruction
system.cpu.commit.op_class_0::FloatMemRead        23384      0.50%     99.72% # Class of committed instruction
system.cpu.commit.op_class_0::FloatMemWrite        13135      0.28%    100.00% # Class of committed instruction
system.cpu.commit.op_class_0::IprAccess             0      0.00%    100.00% # Class of committed instruction
system.cpu.commit.op_class_0::InstPrefetch            0      0.00%    100.00% # Class of committed instruction
system.cpu.commit.op_class_0::total           4685695                       # Class of committed instruction
system.cpu.commit.refs                         879021                       # Number of memory references committed
system.cpu.commit.swp_count                         0                       # Number of s/w prefetches committed
system.cpu.commit.vec_insts                         0                       # Number of committed Vector instructions.
system.cpu.committedInsts                     2636422                       # Number of Instructions Simulated
system.cpu.committedOps                       4685695                       # Number of Ops (including micro ops) Simulated
system.cpu.cpi                               1.220087                       # CPI: Cycles Per Instruction
system.cpu.cpi_total                         1.220087                       # CPI: Total CPI of All Threads
system.cpu.dcache.prefetcher.num_hwpf_issued         7690                       # number of hwpf issued
system.cpu.dcache.prefetcher.pfBufferHit        33465                       # number of redundant prefetches already in prefetch queue
system.cpu.dcache.prefetcher.pfIdentified        49222                       # number of prefetch candidates identified
system.cpu.dcache.prefetcher.pfInCache              0                       # number of redundant prefetches already in cache/mshr dropped
system.cpu.dcache.prefetcher.pfRemovedFull            0                       # number of prefetches dropped due to prefetch queue size
system.cpu.dcache.prefetcher.pfSpanPage          4406                       # number of prefetches that crossed the page
system.cpu.decode.BlockedCycles               1052743                       # Number of cycles decode is blocked
system.cpu.decode.DecodedInsts                5881630                       # Number of instructions handled by decode
system.cpu.decode.IdleCycles                   404966                       # Number of cycles decode is idle
system.cpu.decode.RunCycles                   1474793                       # Number of cycles decode is running
system.cpu.decode.SquashCycles                  26992                       # Number of cycles decode is squashing
system.cpu.decode.UnblockCycles                 92834                       # Number of cycles decode is unblocking
system.cpu.dtb.rdAccesses                      712395                       # TLB accesses on read requests
system.cpu.dtb.rdMisses                          2018                       # TLB misses on read requests
system.cpu.dtb.wrAccesses                      279043                       # TLB accesses on write requests
system.cpu.dtb.wrMisses                           162                       # TLB misses on write requests
system.cpu.fetch.Branches                      618605                       # Number of branches that fetch encountered
system.cpu.fetch.CacheLines                    342617                       # Number of cache lines fetched
system.cpu.fetch.Cycles                       2588570                       # Number of cycles fetch has run and was not squashing or blocked
system.cpu.fetch.IcacheSquashes                  5111                       # Number of outstanding Icache misses that were squashed
system.cpu.fetch.Insts                        3465308                       # Number of instructions fetch has processed
system.cpu.fetch.MiscStallCycles                  144                       # Number of cycles fetch has spent waiting on interrupts, or bad addresses, or out of MSHRs
system.cpu.fetch.PendingQuiesceStallCycles            6                       # Number of stall cycles due to pending quiesce instructions
system.cpu.fetch.PendingTrapStallCycles           711                       # Number of stall cycles due to pending traps
system.cpu.fetch.SquashCycles                   53984                       # Number of cycles fetch has spent squashing
system.cpu.fetch.branchRate                  0.192313                       # Number of branch fetches per cycle
system.cpu.fetch.icacheStallCycles             435905                       # Number of cycles fetch is stalled on an Icache miss
system.cpu.fetch.predictedBranches             317609                       # Number of branches that fetch has predicted taken
system.cpu.fetch.rate                        1.077299                       # Number of inst fetches per cycle
system.cpu.fetch.rateDist::samples            3052328                       # Number of instructions fetched each cycle (Total)
system.cpu.fetch.rateDist::mean              2.022110                       # Number of instructions fetched each cycle (Total)
system.cpu.fetch.rateDist::stdev             1.921456                       # Number of instructions fetched each cycle (Total)
system.cpu.fetch.rateDist::underflows               0      0.00%      0.00% # Number of instructions fetched each cycle (Total)
system.cpu.fetch.rateDist::0                  1360285     44.57%     44.57% # Number of instructions fetched each cycle (Total)
system.cpu.fetch.rateDist::1                   116961      3.83%     48.40% # Number of instructions fetched each cycle (Total)
system.cpu.fetch.rateDist::2                    73833      2.42%     50.82% # Number of instructions fetched each cycle (Total)
system.cpu.fetch.rateDist::3                    97480      3.19%     54.01% # Number of instructions fetched each cycle (Total)
system.cpu.fetch.rateDist::4                  1403769     45.99%    100.00% # Number of instructions fetched each cycle (Total)
system.cpu.fetch.rateDist::overflows                0      0.00%    100.00% # Number of instructions fetched each cycle (Total)
system.cpu.fetch.rateDist::min_value                0                       # Number of instructions fetched each cycle (Total)
system.cpu.fetch.rateDist::max_value                4                       # Number of instructions fetched each cycle (Total)
system.cpu.fetch.rateDist::total              3052328                       # Number of instructions fetched each cycle (Total)
system.cpu.fp_regfile_reads                    187535                       # number of floating regfile reads
system.cpu.fp_regfile_writes                   101276                       # number of floating regfile writes
system.cpu.fuPool.fu_ticks_busy::IntALU(0)    275446400                       # Total ticks fu was busy
system.cpu.fuPool.fu_ticks_busy::IntALU(1)    275446400                       # Total ticks fu was busy
system.cpu.fuPool.fu_ticks_busy::IntALU(2)    275446400                       # Total ticks fu was busy
system.cpu.fuPool.fu_ticks_busy::IntALU(3)    275446400                       # Total ticks fu was busy
system.cpu.fuPool.fu_ticks_busy::IntALU(4)    275446400                       # Total ticks fu was busy
system.cpu.fuPool.fu_ticks_busy::IntALU(5)    275446000                       # Total ticks fu was busy
system.cpu.fuPool.fu_ticks_busy::IntMultDiv(0)      9839200                       # Total ticks fu was busy
system.cpu.fuPool.fu_ticks_busy::IntMultDiv(1)      9838800                       # Total ticks fu was busy
system.cpu.fuPool.fu_ticks_busy::FP_ALU(0)       738000                       # Total ticks fu was busy
system.cpu.fuPool.fu_ticks_busy::FP_ALU(1)       738000                       # Total ticks fu was busy
system.cpu.fuPool.fu_ticks_busy::FP_ALU(2)       737600                       # Total ticks fu was busy
system.cpu.fuPool.fu_ticks_busy::FP_ALU(3)       737600                       # Total ticks fu was busy
system.cpu.fuPool.fu_ticks_busy::FP_MultDiv(0)            0                       # Total ticks fu was busy
system.cpu.fuPool.fu_ticks_busy::FP_MultDiv(1)            0                       # Total ticks fu was busy
system.cpu.fuPool.fu_ticks_busy::SIMD_Unit(0)      7071600                       # Total ticks fu was busy
system.cpu.fuPool.fu_ticks_busy::SIMD_Unit(1)      7204800                       # Total ticks fu was busy
system.cpu.fuPool.fu_ticks_busy::SIMD_Unit(2)      7325200                       # Total ticks fu was busy
system.cpu.fuPool.fu_ticks_busy::SIMD_Unit(3)      7394000                       # Total ticks fu was busy
system.cpu.fuPool.fu_ticks_busy::PredALU(0)            0                       # Total ticks fu was busy
system.cpu.fuPool.fu_ticks_busy::RdWrPort(0)    100796800                       # Total ticks fu was busy
system.cpu.fuPool.fu_ticks_busy::RdWrPort(1)    100741600                       # Total ticks fu was busy
system.cpu.fuPool.fu_ticks_busy::RdWrPort(2)    100752400                       # Total ticks fu was busy
system.cpu.fuPool.fu_ticks_busy::RdWrPort(3)    100782400                       # Total ticks fu was busy
system.cpu.fuPool.fu_ticks_busy::IprPort(0)            0                       # Total ticks fu was busy
system.cpu.fuPool.fu_ticks_busy::total     2107376000                       # Total ticks fu was busy
system.cpu.icache.prefetcher.num_hwpf_issued            0                       # number of hwpf issued
system.cpu.icache.prefetcher.pfBufferHit            0                       # number of redundant prefetches already in prefetch queue
system.cpu.icache.prefetcher.pfIdentified            0                       # number of prefetch candidates identified
system.cpu.icache.prefetcher.pfInCache              0                       # number of redundant prefetches already in cache/mshr dropped
system.cpu.icache.prefetcher.pfRemovedFull            0                       # number of prefetches dropped due to prefetch queue size
system.cpu.icache.prefetcher.pfSpanPage             0                       # number of prefetches that crossed the page
system.cpu.idleCycles                          164335                       # Total number of cycles that the CPU has spent unscheduled due to idling
system.cpu.iew.branchMispredicts                31813                       # Number of branch mispredicts detected at execute
system.cpu.iew.exec_branches                   495470                       # Number of branches executed
system.cpu.iew.exec_nop                             0                       # number of nop insts executed
system.cpu.iew.exec_rate                     1.635528                       # Inst execution rate
system.cpu.iew.exec_refs                       992828                       # number of memory reference insts executed
system.cpu.iew.exec_stores                     278808                       # Number of stores executed
system.cpu.iew.exec_swp                             0                       # number of swp insts executed
system.cpu.iew.iewBlockCycles                  712595                       # Number of cycles IEW is blocking
system.cpu.iew.iewDispLoadInsts                748842                       # Number of dispatched load instructions
system.cpu.iew.iewDispNonSpecInsts                946                       # Number of dispatched non-speculative instructions
system.cpu.iew.iewDispSquashedInsts               638                       # Number of squashed instructions skipped by dispatch
system.cpu.iew.iewDispStoreInsts               291458                       # Number of dispatched store instructions
system.cpu.iew.iewDispatchedInsts             5643318                       # Number of instructions dispatched to IQ
system.cpu.iew.iewExecLoadInsts                714020                       # Number of load instructions executed
system.cpu.iew.iewExecSquashedInsts             38830                       # Number of squashed instructions skipped in execute
system.cpu.iew.iewExecutedInsts               5260944                       # Number of executed instructions
system.cpu.iew.iewIQFullEvents                   3312                       # Number of times the IQ has become full, causing a stall
system.cpu.iew.iewIdleCycles                        0                       # Number of cycles IEW is idle
system.cpu.iew.iewLSQFullEvents                  9183                       # Number of times the LSQ has become full, causing a stall
system.cpu.iew.iewSquashCycles                  26992                       # Number of cycles IEW is squashing
system.cpu.iew.iewUnblockCycles                 15368                       # Number of cycles IEW is unblocking
system.cpu.iew.lsq.thread0.blockedLoads             0                       # Number of blocked loads due to partial load-store forwarding
system.cpu.iew.lsq.thread0.cacheBlocked           602                       # Number of times an access to memory failed due to the cache being blocked
system.cpu.iew.lsq.thread0.forwLoads            49193                       # Number of loads that had data forwarded from stores
system.cpu.iew.lsq.thread0.ignoredResponses          248                       # Number of memory responses ignored because the instruction is squashed
system.cpu.iew.lsq.thread0.invAddrLoads             0                       # Number of loads ignored due to an invalid address
system.cpu.iew.lsq.thread0.invAddrSwpfs             0                       # Number of software prefetches ignored due to an invalid address
system.cpu.iew.lsq.thread0.memOrderViolation           94                       # Number of memory ordering violations
system.cpu.iew.lsq.thread0.rescheduledLoads           70                       # Number of loads that were rescheduled
system.cpu.iew.lsq.thread0.squashedLoads       127148                       # Number of loads squashed
system.cpu.iew.lsq.thread0.squashedStores        34128                       # Number of stores squashed
system.cpu.iew.memOrderViolationEvents             94                       # Number of memory order violations
system.cpu.iew.predictedNotTakenIncorrect        23000                       # Number of branches that were predicted not taken incorrectly
system.cpu.iew.predictedTakenIncorrect           8813                       # Number of branches that were predicted taken incorrectly
system.cpu.iew.wb_consumers                   7063482                       # num instructions consuming a value
system.cpu.iew.wb_count                       5237127                       # cumulative count of insts written-back
system.cpu.iew.wb_fanout                     0.577698                       # average fanout of values written-back
system.cpu.iew.wb_producers                   4080562                       # num instructions producing a value
system.cpu.iew.wb_rate                       1.628124                       # insts written-back per cycle
system.cpu.iew.wb_sent                        5244683                       # cumulative count of insts sent to commit
system.cpu.int_regfile_reads                  8091481                       # number of integer regfile reads
system.cpu.int_regfile_writes                 4441372                       # number of integer regfile writes
system.cpu.ipc                               0.819614                       # IPC: Instructions Per Cycle
system.cpu.ipc_total                         0.819614                       # IPC: Total IPC of All Threads
system.cpu.iq.FU_type_0::No_OpClass             31334      0.59%      0.59% # Type of FU issued
system.cpu.iq.FU_type_0::IntAlu               4131696     77.96%     78.55% # Type of FU issued
system.cpu.iq.FU_type_0::IntMult                 7587      0.14%     78.69% # Type of FU issued
system.cpu.iq.FU_type_0::IntDiv                 41608      0.79%     79.48% # Type of FU issued
system.cpu.iq.FU_type_0::FloatAdd                6120      0.12%     79.59% # Type of FU issued
system.cpu.iq.FU_type_0::FloatCmp                   0      0.00%     79.59% # Type of FU issued
system.cpu.iq.FU_type_0::FloatCvt                1258      0.02%     79.62% # Type of FU issued
system.cpu.iq.FU_type_0::FloatMult                  0      0.00%     79.62% # Type of FU issued
system.cpu.iq.FU_type_0::FloatMultAcc               0      0.00%     79.62% # Type of FU issued
system.cpu.iq.FU_type_0::FloatDiv                   0      0.00%     79.62% # Type of FU issued
system.cpu.iq.FU_type_0::FloatMisc                  0      0.00%     79.62% # Type of FU issued
system.cpu.iq.FU_type_0::FloatSqrt                  0      0.00%     79.62% # Type of FU issued
system.cpu.iq.FU_type_0::SimdAdd                 7006      0.13%     79.75% # Type of FU issued
system.cpu.iq.FU_type_0::SimdAddAcc                 0      0.00%     79.75% # Type of FU issued
system.cpu.iq.FU_type_0::SimdAlu                21649      0.41%     80.16% # Type of FU issued
system.cpu.iq.FU_type_0::SimdCmp                    0      0.00%     80.16% # Type of FU issued
system.cpu.iq.FU_type_0::SimdCvt                20352      0.38%     80.54% # Type of FU issued
system.cpu.iq.FU_type_0::SimdMisc               21066      0.40%     80.94% # Type of FU issued
system.cpu.iq.FU_type_0::SimdMult                   0      0.00%     80.94% # Type of FU issued
system.cpu.iq.FU_type_0::SimdMultAcc                0      0.00%     80.94% # Type of FU issued
system.cpu.iq.FU_type_0::SimdShift               2416      0.05%     80.99% # Type of FU issued
system.cpu.iq.FU_type_0::SimdShiftAcc               0      0.00%     80.99% # Type of FU issued
system.cpu.iq.FU_type_0::SimdDiv                    0      0.00%     80.99% # Type of FU issued
system.cpu.iq.FU_type_0::SimdSqrt                   0      0.00%     80.99% # Type of FU issued
system.cpu.iq.FU_type_0::SimdFloatAdd               0      0.00%     80.99% # Type of FU issued
system.cpu.iq.FU_type_0::SimdFloatAlu               0      0.00%     80.99% # Type of FU issued
system.cpu.iq.FU_type_0::SimdFloatCmp               0      0.00%     80.99% # Type of FU issued
system.cpu.iq.FU_type_0::SimdFloatCvt               0      0.00%     80.99% # Type of FU issued
system.cpu.iq.FU_type_0::SimdFloatDiv               0      0.00%     80.99% # Type of FU issued
system.cpu.iq.FU_type_0::SimdFloatMisc              0      0.00%     80.99% # Type of FU issued
system.cpu.iq.FU_type_0::SimdFloatMult              0      0.00%     80.99% # Type of FU issued
system.cpu.iq.FU_type_0::SimdFloatMultAcc            0      0.00%     80.99% # Type of FU issued
system.cpu.iq.FU_type_0::SimdFloatSqrt              0      0.00%     80.99% # Type of FU issued
system.cpu.iq.FU_type_0::SimdReduceAdd              0      0.00%     80.99% # Type of FU issued
system.cpu.iq.FU_type_0::SimdReduceAlu              0      0.00%     80.99% # Type of FU issued
system.cpu.iq.FU_type_0::SimdReduceCmp              0      0.00%     80.99% # Type of FU issued
system.cpu.iq.FU_type_0::SimdFloatReduceAdd            0      0.00%     80.99% # Type of FU issued
system.cpu.iq.FU_type_0::SimdFloatReduceCmp            0      0.00%     80.99% # Type of FU issued
system.cpu.iq.FU_type_0::SimdAes                    0      0.00%     80.99% # Type of FU issued
system.cpu.iq.FU_type_0::SimdAesMix                 0      0.00%     80.99% # Type of FU issued
system.cpu.iq.FU_type_0::SimdSha1Hash               0      0.00%     80.99% # Type of FU issued
system.cpu.iq.FU_type_0::SimdSha1Hash2              0      0.00%     80.99% # Type of FU issued
system.cpu.iq.FU_type_0::SimdSha256Hash             0      0.00%     80.99% # Type of FU issued
system.cpu.iq.FU_type_0::SimdSha256Hash2            0      0.00%     80.99% # Type of FU issued
system.cpu.iq.FU_type_0::SimdShaSigma2              0      0.00%     80.99% # Type of FU issued
system.cpu.iq.FU_type_0::SimdShaSigma3              0      0.00%     80.99% # Type of FU issued
system.cpu.iq.FU_type_0::SimdPredAlu                0      0.00%     80.99% # Type of FU issued
system.cpu.iq.FU_type_0::MemRead               695744     13.13%     94.11% # Type of FU issued
system.cpu.iq.FU_type_0::MemWrite              267081      5.04%     99.15% # Type of FU issued
system.cpu.iq.FU_type_0::FloatMemRead           30143      0.57%     99.72% # Type of FU issued
system.cpu.iq.FU_type_0::FloatMemWrite          14717      0.28%    100.00% # Type of FU issued
system.cpu.iq.FU_type_0::IprAccess                  0      0.00%    100.00% # Type of FU issued
system.cpu.iq.FU_type_0::InstPrefetch               0      0.00%    100.00% # Type of FU issued
system.cpu.iq.FU_type_0::total                5299777                       # Type of FU issued
system.cpu.iq.fp_alu_accesses                  130416                       # Number of floating point alu accesses
system.cpu.iq.fp_inst_queue_reads              262284                       # Number of floating instruction queue reads
system.cpu.iq.fp_inst_queue_wakeup_accesses       126550                       # Number of floating instruction queue wakeup accesses
system.cpu.iq.fp_inst_queue_writes             177311                       # Number of floating instruction queue writes
system.cpu.iq.fu_busy_cnt                           0                       # FU busy when requested
system.cpu.iq.fu_busy_rate                          0                       # FU busy rate (busy events/executed inst)
system.cpu.iq.fu_full::No_OpClass                   0                       # attempts to use FU when none available
system.cpu.iq.fu_full::IntAlu                       0                       # attempts to use FU when none available
system.cpu.iq.fu_full::IntMult                      0                       # attempts to use FU when none available
system.cpu.iq.fu_full::IntDiv                       0                       # attempts to use FU when none available
system.cpu.iq.fu_full::FloatAdd                     0                       # attempts to use FU when none available
system.cpu.iq.fu_full::FloatCmp                     0                       # attempts to use FU when none available
system.cpu.iq.fu_full::FloatCvt                     0                       # attempts to use FU when none available
system.cpu.iq.fu_full::FloatMult                    0                       # attempts to use FU when none available
system.cpu.iq.fu_full::FloatMultAcc                 0                       # attempts to use FU when none available
system.cpu.iq.fu_full::FloatDiv                     0                       # attempts to use FU when none available
system.cpu.iq.fu_full::FloatMisc                    0                       # attempts to use FU when none available
system.cpu.iq.fu_full::FloatSqrt                    0                       # attempts to use FU when none available
system.cpu.iq.fu_full::SimdAdd                      0                       # attempts to use FU when none available
system.cpu.iq.fu_full::SimdAddAcc                   0                       # attempts to use FU when none available
system.cpu.iq.fu_full::SimdAlu                      0                       # attempts to use FU when none available
system.cpu.iq.fu_full::SimdCmp                      0                       # attempts to use FU when none available
system.cpu.iq.fu_full::SimdCvt                      0                       # attempts to use FU when none available
system.cpu.iq.fu_full::SimdMisc                     0                       # attempts to use FU when none available
system.cpu.iq.fu_full::SimdMult                     0                       # attempts to use FU when none available
system.cpu.iq.fu_full::SimdMultAcc                  0                       # attempts to use FU when none available
system.cpu.iq.fu_full::SimdShift                    0                       # attempts to use FU when none available
system.cpu.iq.fu_full::SimdShiftAcc                 0                       # attempts to use FU when none available
system.cpu.iq.fu_full::SimdDiv                      0                       # attempts to use FU when none available
system.cpu.iq.fu_full::SimdSqrt                     0                       # attempts to use FU when none available
system.cpu.iq.fu_full::SimdFloatAdd                 0                       # attempts to use FU when none available
system.cpu.iq.fu_full::SimdFloatAlu                 0                       # attempts to use FU when none available
system.cpu.iq.fu_full::SimdFloatCmp                 0                       # attempts to use FU when none available
system.cpu.iq.fu_full::SimdFloatCvt                 0                       # attempts to use FU when none available
system.cpu.iq.fu_full::SimdFloatDiv                 0                       # attempts to use FU when none available
system.cpu.iq.fu_full::SimdFloatMisc                0                       # attempts to use FU when none available
system.cpu.iq.fu_full::SimdFloatMult                0                       # attempts to use FU when none available
system.cpu.iq.fu_full::SimdFloatMultAcc             0                       # attempts to use FU when none available
system.cpu.iq.fu_full::SimdFloatSqrt                0                       # attempts to use FU when none available
system.cpu.iq.fu_full::SimdReduceAdd                0                       # attempts to use FU when none available
system.cpu.iq.fu_full::SimdReduceAlu                0                       # attempts to use FU when none available
system.cpu.iq.fu_full::SimdReduceCmp                0                       # attempts to use FU when none available
system.cpu.iq.fu_full::SimdFloatReduceAdd            0                       # attempts to use FU when none available
system.cpu.iq.fu_full::SimdFloatReduceCmp            0                       # attempts to use FU when none available
system.cpu.iq.fu_full::SimdAes                      0                       # attempts to use FU when none available
system.cpu.iq.fu_full::SimdAesMix                   0                       # attempts to use FU when none available
system.cpu.iq.fu_full::SimdSha1Hash                 0                       # attempts to use FU when none available
system.cpu.iq.fu_full::SimdSha1Hash2                0                       # attempts to use FU when none available
system.cpu.iq.fu_full::SimdSha256Hash               0                       # attempts to use FU when none available
system.cpu.iq.fu_full::SimdSha256Hash2              0                       # attempts to use FU when none available
system.cpu.iq.fu_full::SimdShaSigma2                0                       # attempts to use FU when none available
system.cpu.iq.fu_full::SimdShaSigma3                0                       # attempts to use FU when none available
system.cpu.iq.fu_full::SimdPredAlu                  0                       # attempts to use FU when none available
system.cpu.iq.fu_full::MemRead                      0                       # attempts to use FU when none available
system.cpu.iq.fu_full::MemWrite                     0                       # attempts to use FU when none available
system.cpu.iq.fu_full::FloatMemRead                 0                       # attempts to use FU when none available
system.cpu.iq.fu_full::FloatMemWrite                0                       # attempts to use FU when none available
system.cpu.iq.fu_full::IprAccess                    0                       # attempts to use FU when none available
system.cpu.iq.fu_full::InstPrefetch                 0                       # attempts to use FU when none available
system.cpu.iq.int_alu_accesses                5138027                       # Number of integer alu accesses
system.cpu.iq.int_inst_queue_reads           13410285                       # Number of integer instruction queue reads
system.cpu.iq.int_inst_queue_wakeup_accesses      5110577                       # Number of integer instruction queue wakeup accesses
system.cpu.iq.int_inst_queue_writes           6423712                       # Number of integer instruction queue writes
system.cpu.iq.iqInstsAdded                    5642178                       # Number of instructions added to the IQ (excludes non-spec)
system.cpu.iq.iqInstsIssued                   5299777                       # Number of instructions issued
system.cpu.iq.iqNonSpecInstsAdded                1140                       # Number of non-speculative instructions added to the IQ
system.cpu.iq.iqSquashedInstsExamined          957612                       # Number of squashed instructions iterated over during squash; mainly for profiling
system.cpu.iq.iqSquashedInstsIssued             20690                       # Number of squashed instructions issued
system.cpu.iq.iqSquashedNonSpecRemoved            397                       # Number of squashed non-spec instructions that were removed
system.cpu.iq.iqSquashedOperandsExamined      1420202                       # Number of squashed operands that are examined and possibly removed from graph
system.cpu.iq.issued_per_cycle::samples       3052328                       # Number of insts issued each cycle
system.cpu.iq.issued_per_cycle::mean         1.736307                       # Number of insts issued each cycle
system.cpu.iq.issued_per_cycle::stdev        1.654536                       # Number of insts issued each cycle
system.cpu.iq.issued_per_cycle::underflows            0      0.00%      0.00% # Number of insts issued each cycle
system.cpu.iq.issued_per_cycle::0             1236270     40.50%     40.50% # Number of insts issued each cycle
system.cpu.iq.issued_per_cycle::1              246080      8.06%     48.56% # Number of insts issued each cycle
system.cpu.iq.issued_per_cycle::2              387765     12.70%     61.27% # Number of insts issued each cycle
system.cpu.iq.issued_per_cycle::3              450685     14.77%     76.03% # Number of insts issued each cycle
system.cpu.iq.issued_per_cycle::4              731528     23.97%    100.00% # Number of insts issued each cycle
system.cpu.iq.issued_per_cycle::overflows            0      0.00%    100.00% # Number of insts issued each cycle
system.cpu.iq.issued_per_cycle::min_value            0                       # Number of insts issued each cycle
system.cpu.iq.issued_per_cycle::max_value            4                       # Number of insts issued each cycle
system.cpu.iq.issued_per_cycle::total         3052328                       # Number of insts issued each cycle
system.cpu.iq.rate                           1.647601                       # Inst issue rate
system.cpu.iq.vec_alu_accesses                      0                       # Number of vector alu accesses
system.cpu.iq.vec_inst_queue_reads                  0                       # Number of vector instruction queue reads
system.cpu.iq.vec_inst_queue_wakeup_accesses            0                       # Number of vector instruction queue wakeup accesses
system.cpu.iq.vec_inst_queue_writes                 0                       # Number of vector instruction queue writes
system.cpu.itb.rdAccesses                           0                       # TLB accesses on read requests
system.cpu.itb.rdMisses                             0                       # TLB misses on read requests
system.cpu.itb.wrAccesses                      342736                       # TLB accesses on write requests
system.cpu.itb.wrMisses                           371                       # TLB misses on write requests
system.cpu.memDep0.conflictingLoads             18067                       # Number of conflicting loads.
system.cpu.memDep0.conflictingStores             6432                       # Number of conflicting stores.
system.cpu.memDep0.insertedLoads               748842                       # Number of loads inserted to the mem dependence unit.
system.cpu.memDep0.insertedStores              291458                       # Number of stores inserted to the mem dependence unit.
system.cpu.misc_regfile_reads                 2025300                       # number of misc regfile reads
system.cpu.misc_regfile_writes                    684                       # number of misc regfile writes
system.cpu.numCycles                          3216663                       # number of cpu cycles simulated
system.cpu.numWorkItemsCompleted                    0                       # number of work items this cpu completed
system.cpu.numWorkItemsStarted                      0                       # number of work items this cpu started
system.cpu.process.numSyscalls                     58                       # Number of system calls
system.cpu.rename.BlockCycles                  863726                       # Number of cycles rename is blocking
system.cpu.rename.CommittedMaps               6183895                       # Number of HB maps that are committed
system.cpu.rename.FullRegisterEvents              340                       # Number of times there has been no free registers
system.cpu.rename.IQFullEvents                  48320                       # Number of times rename has blocked due to IQ full
system.cpu.rename.IdleCycles                   458269                       # Number of cycles rename is idle
system.cpu.rename.LQFullEvents                  13238                       # Number of times rename has blocked due to LQ full
system.cpu.rename.ROBFullEvents                  4558                       # Number of times rename has blocked due to ROB full
system.cpu.rename.RenameLookups              15083756                       # Number of register rename lookups that rename has made
system.cpu.rename.RenamedInsts                5800073                       # Number of instructions processed by rename
system.cpu.rename.RenamedOperands             7677935                       # Number of destination operands rename has renamed
system.cpu.rename.RunCycles                   1505401                       # Number of cycles rename is running
system.cpu.rename.SQFullEvents                  77590                       # Number of times rename has blocked due to SQ full
system.cpu.rename.SquashCycles                  26992                       # Number of cycles rename is squashing
system.cpu.rename.UnblockCycles                178077                       # Number of cycles rename is unblocking
system.cpu.rename.UndoneMaps                  1494017                       # Number of HB maps that are undone due to squashing
system.cpu.rename.fp_rename_lookups            227320                       # Number of floating rename lookups
system.cpu.rename.int_rename_lookups          9111173                       # Number of integer rename lookups
system.cpu.rename.serializeStallCycles          19863                       # count of cycles rename stalled for serializing inst
system.cpu.rename.serializingInsts                884                       # count of serializing insts renamed
system.cpu.rename.skidInsts                    213728                       # count of insts added to the skid buffer
system.cpu.rename.tempSerializingInsts            937                       # count of temporary serializing insts renamed
system.cpu.rob.rob_reads                      7666760                       # The number of ROB reads
system.cpu.rob.rob_writes                    11549094                       # The number of ROB writes
system.cpu.timesIdled                            1628                       # Number of times that the entire CPU went into an idle state and unscheduled itself
system.l2bus.snoop_filter.hit_multi_requests           11                       # Number of requests hitting in the snoop filter with multiple (>1) holders of the requested data.
system.l2bus.snoop_filter.hit_multi_snoops            0                       # Number of snoops hitting in the snoop filter with multiple (>1) holders of the requested data.
system.l2bus.snoop_filter.hit_single_requests        18622                       # Number of requests hitting in the snoop filter with a single holder of the requested data.
system.l2bus.snoop_filter.hit_single_snoops          436                       # Number of snoops hitting in the snoop filter with a single holder of the requested data.
system.l2bus.snoop_filter.tot_requests          38522                       # Total number of requests made to the snoop filter.
system.l2bus.snoop_filter.tot_snoops              436                       # Total number of snoops made to the snoop filter.
system.l2cache.prefetcher.num_hwpf_issued          692                       # number of hwpf issued
system.l2cache.prefetcher.pfBufferHit               0                       # number of redundant prefetches already in prefetch queue
system.l2cache.prefetcher.pfIdentified            693                       # number of prefetch candidates identified
system.l2cache.prefetcher.pfInCache                 0                       # number of redundant prefetches already in cache/mshr dropped
system.l2cache.prefetcher.pfRemovedFull             0                       # number of prefetches dropped due to prefetch queue size
system.l2cache.prefetcher.pfSpanPage              107                       # number of prefetches that crossed the page
system.membus.snoop_filter.hit_multi_requests            0                       # Number of requests hitting in the snoop filter with multiple (>1) holders of the requested data.
system.membus.snoop_filter.hit_multi_snoops            0                       # Number of snoops hitting in the snoop filter with multiple (>1) holders of the requested data.
system.membus.snoop_filter.hit_single_requests         9612                       # Number of requests hitting in the snoop filter with a single holder of the requested data.
system.membus.snoop_filter.hit_single_snoops            0                       # Number of snoops hitting in the snoop filter with a single holder of the requested data.
system.membus.snoop_filter.tot_requests         23350                       # Total number of requests made to the snoop filter.
system.membus.snoop_filter.tot_snoops               0                       # Total number of snoops made to the snoop filter.
system.membus.pwrStateResidencyTicks::UNDEFINED   1286664800                       # Cumulative time (in ticks) in various power states
system.membus.trans_dist::ReadResp              12259                       # Transaction distribution
system.membus.trans_dist::WritebackDirty         1352                       # Transaction distribution
system.membus.trans_dist::CleanEvict             8260                       # Transaction distribution
system.membus.trans_dist::ReadExReq              1479                       # Transaction distribution
system.membus.trans_dist::ReadExResp             1479                       # Transaction distribution
system.membus.trans_dist::ReadSharedReq         12259                       # Transaction distribution
system.membus.pkt_count_system.l2cache.mem_side::system.mem_ctrl.port        37088                       # Packet count per connected master and slave (bytes)
system.membus.pkt_count_system.l2cache.mem_side::total        37088                       # Packet count per connected master and slave (bytes)
system.membus.pkt_count::total                  37088                       # Packet count per connected master and slave (bytes)
system.membus.pkt_size_system.l2cache.mem_side::system.mem_ctrl.port       965760                       # Cumulative packet size per connected master and slave (bytes)
system.membus.pkt_size_system.l2cache.mem_side::total       965760                       # Cumulative packet size per connected master and slave (bytes)
system.membus.pkt_size::total                  965760                       # Cumulative packet size per connected master and slave (bytes)
system.membus.snoops                                0                       # Total snoops (count)
system.membus.snoopTraffic                          0                       # Total snoop traffic (bytes)
system.membus.snoop_fanout::samples             13738                       # Request fanout histogram
system.membus.snoop_fanout::mean                    0                       # Request fanout histogram
system.membus.snoop_fanout::stdev                   0                       # Request fanout histogram
system.membus.snoop_fanout::underflows              0      0.00%      0.00% # Request fanout histogram
system.membus.snoop_fanout::0                   13738    100.00%    100.00% # Request fanout histogram
system.membus.snoop_fanout::1                       0      0.00%    100.00% # Request fanout histogram
system.membus.snoop_fanout::overflows               0      0.00%    100.00% # Request fanout histogram
system.membus.snoop_fanout::min_value               0                       # Request fanout histogram
system.membus.snoop_fanout::max_value               0                       # Request fanout histogram
system.membus.snoop_fanout::total               13738                       # Request fanout histogram
system.membus.reqLayer2.occupancy            11528801                       # Layer occupancy (ticks)
system.membus.reqLayer2.utilization               0.9                       # Layer utilization (%)
system.membus.respLayer0.occupancy           29784299                       # Layer occupancy (ticks)
system.membus.respLayer0.utilization              2.3                       # Layer utilization (%)
system.l2bus.pwrStateResidencyTicks::UNDEFINED   1286664800                       # Cumulative time (in ticks) in various power states
system.l2bus.trans_dist::ReadResp               17671                       # Transaction distribution
system.l2bus.trans_dist::WritebackDirty          4175                       # Transaction distribution
system.l2bus.trans_dist::CleanEvict             24147                       # Transaction distribution
system.l2bus.trans_dist::HardPFReq                999                       # Transaction distribution
system.l2bus.trans_dist::ReadExReq               2230                       # Transaction distribution
system.l2bus.trans_dist::ReadExResp              2230                       # Transaction distribution
system.l2bus.trans_dist::ReadSharedReq          17671                       # Transaction distribution
system.l2bus.pkt_count_system.cpu.icache.mem_side::system.l2cache.cpu_side         8434                       # Packet count per connected master and slave (bytes)
system.l2bus.pkt_count_system.cpu.dcache.mem_side::system.l2cache.cpu_side        49986                       # Packet count per connected master and slave (bytes)
system.l2bus.pkt_count::total                   58420                       # Packet count per connected master and slave (bytes)
system.l2bus.pkt_size_system.cpu.icache.mem_side::system.l2cache.cpu_side       185472                       # Cumulative packet size per connected master and slave (bytes)
system.l2bus.pkt_size_system.cpu.dcache.mem_side::system.l2cache.cpu_side      1268672                       # Cumulative packet size per connected master and slave (bytes)
system.l2bus.pkt_size::total                  1454144                       # Cumulative packet size per connected master and slave (bytes)
system.l2bus.snoops                             10703                       # Total snoops (count)
system.l2bus.snoopTraffic                       86720                       # Total snoop traffic (bytes)
system.l2bus.snoop_fanout::samples              30601                       # Request fanout histogram
system.l2bus.snoop_fanout::mean              0.014640                       # Request fanout histogram
system.l2bus.snoop_fanout::stdev             0.120109                       # Request fanout histogram
system.l2bus.snoop_fanout::underflows               0      0.00%      0.00% # Request fanout histogram
system.l2bus.snoop_fanout::0                    30153     98.54%     98.54% # Request fanout histogram
system.l2bus.snoop_fanout::1                      448      1.46%    100.00% # Request fanout histogram
system.l2bus.snoop_fanout::2                        0      0.00%    100.00% # Request fanout histogram
system.l2bus.snoop_fanout::overflows                0      0.00%    100.00% # Request fanout histogram
system.l2bus.snoop_fanout::min_value                0                       # Request fanout histogram
system.l2bus.snoop_fanout::max_value                1                       # Request fanout histogram
system.l2bus.snoop_fanout::total                30601                       # Request fanout histogram
system.l2bus.respLayer1.occupancy            20405199                       # Layer occupancy (ticks)
system.l2bus.respLayer1.utilization               1.6                       # Layer utilization (%)
system.l2bus.reqLayer0.occupancy             19043707                       # Layer occupancy (ticks)
system.l2bus.reqLayer0.utilization                1.5                       # Layer utilization (%)
system.l2bus.respLayer0.occupancy             3477198                       # Layer occupancy (ticks)
system.l2bus.respLayer0.utilization               0.3                       # Layer utilization (%)
system.clk_domain.clock                           400                       # Clock period in ticks
system.clk_domain.voltage_domain.voltage            1                       # Voltage in Volts
system.cpu.pwrStateResidencyTicks::ON      1286664800                       # Cumulative time (in ticks) in various power states
system.cpu.icache.pwrStateResidencyTicks::UNDEFINED   1286664800                       # Cumulative time (in ticks) in various power states
system.cpu.icache.demand_hits::.cpu.inst       338979                       # number of demand (read+write) hits
system.cpu.icache.demand_hits::total           338979                       # number of demand (read+write) hits
system.cpu.icache.overall_hits::.cpu.inst       338979                       # number of overall hits
system.cpu.icache.overall_hits::total          338979                       # number of overall hits
system.cpu.icache.demand_misses::.cpu.inst         3637                       # number of demand (read+write) misses
system.cpu.icache.demand_misses::total           3637                       # number of demand (read+write) misses
system.cpu.icache.overall_misses::.cpu.inst         3637                       # number of overall misses
system.cpu.icache.overall_misses::total          3637                       # number of overall misses
system.cpu.icache.demand_miss_latency::.cpu.inst    180559600                       # number of demand (read+write) miss cycles
system.cpu.icache.demand_miss_latency::total    180559600                       # number of demand (read+write) miss cycles
system.cpu.icache.overall_miss_latency::.cpu.inst    180559600                       # number of overall miss cycles
system.cpu.icache.overall_miss_latency::total    180559600                       # number of overall miss cycles
system.cpu.icache.demand_accesses::.cpu.inst       342616                       # number of demand (read+write) accesses
system.cpu.icache.demand_accesses::total       342616                       # number of demand (read+write) accesses
system.cpu.icache.overall_accesses::.cpu.inst       342616                       # number of overall (read+write) accesses
system.cpu.icache.overall_accesses::total       342616                       # number of overall (read+write) accesses
system.cpu.icache.demand_miss_rate::.cpu.inst     0.010615                       # miss rate for demand accesses
system.cpu.icache.demand_miss_rate::total     0.010615                       # miss rate for demand accesses
system.cpu.icache.overall_miss_rate::.cpu.inst     0.010615                       # miss rate for overall accesses
system.cpu.icache.overall_miss_rate::total     0.010615                       # miss rate for overall accesses
system.cpu.icache.demand_avg_miss_latency::.cpu.inst 49645.202090                       # average overall miss latency
system.cpu.icache.demand_avg_miss_latency::total 49645.202090                       # average overall miss latency
system.cpu.icache.overall_avg_miss_latency::.cpu.inst 49645.202090                       # average overall miss latency
system.cpu.icache.overall_avg_miss_latency::total 49645.202090                       # average overall miss latency
system.cpu.icache.blocked_cycles::no_mshrs          184                       # number of cycles access was blocked
system.cpu.icache.blocked_cycles::no_targets            0                       # number of cycles access was blocked
system.cpu.icache.blocked::no_mshrs                 4                       # number of cycles access was blocked
system.cpu.icache.blocked::no_targets               0                       # number of cycles access was blocked
system.cpu.icache.avg_blocked_cycles::no_mshrs           46                       # average number of cycles each access was blocked
system.cpu.icache.avg_blocked_cycles::no_targets          nan                       # average number of cycles each access was blocked
system.cpu.icache.writebacks::.writebacks            2                       # number of writebacks
system.cpu.icache.writebacks::total                 2                       # number of writebacks
system.cpu.icache.demand_mshr_hits::.cpu.inst          740                       # number of demand (read+write) MSHR hits
system.cpu.icache.demand_mshr_hits::total          740                       # number of demand (read+write) MSHR hits
system.cpu.icache.overall_mshr_hits::.cpu.inst          740                       # number of overall MSHR hits
system.cpu.icache.overall_mshr_hits::total          740                       # number of overall MSHR hits
system.cpu.icache.demand_mshr_misses::.cpu.inst         2897                       # number of demand (read+write) MSHR misses
system.cpu.icache.demand_mshr_misses::total         2897                       # number of demand (read+write) MSHR misses
system.cpu.icache.overall_mshr_misses::.cpu.inst         2897                       # number of overall MSHR misses
system.cpu.icache.overall_mshr_misses::total         2897                       # number of overall MSHR misses
system.cpu.icache.demand_mshr_miss_latency::.cpu.inst    144425200                       # number of demand (read+write) MSHR miss cycles
system.cpu.icache.demand_mshr_miss_latency::total    144425200                       # number of demand (read+write) MSHR miss cycles
system.cpu.icache.overall_mshr_miss_latency::.cpu.inst    144425200                       # number of overall MSHR miss cycles
system.cpu.icache.overall_mshr_miss_latency::total    144425200                       # number of overall MSHR miss cycles
system.cpu.icache.demand_mshr_miss_rate::.cpu.inst     0.008456                       # mshr miss rate for demand accesses
system.cpu.icache.demand_mshr_miss_rate::total     0.008456                       # mshr miss rate for demand accesses
system.cpu.icache.overall_mshr_miss_rate::.cpu.inst     0.008456                       # mshr miss rate for overall accesses
system.cpu.icache.overall_mshr_miss_rate::total     0.008456                       # mshr miss rate for overall accesses
system.cpu.icache.demand_avg_mshr_miss_latency::.cpu.inst 49853.365551                       # average overall mshr miss latency
system.cpu.icache.demand_avg_mshr_miss_latency::total 49853.365551                       # average overall mshr miss latency
system.cpu.icache.overall_avg_mshr_miss_latency::.cpu.inst 49853.365551                       # average overall mshr miss latency
system.cpu.icache.overall_avg_mshr_miss_latency::total 49853.365551                       # average overall mshr miss latency
system.cpu.icache.replacements                   2641                       # number of replacements
system.cpu.icache.ReadReq_hits::.cpu.inst       338979                       # number of ReadReq hits
system.cpu.icache.ReadReq_hits::total          338979                       # number of ReadReq hits
system.cpu.icache.ReadReq_misses::.cpu.inst         3637                       # number of ReadReq misses
system.cpu.icache.ReadReq_misses::total          3637                       # number of ReadReq misses
system.cpu.icache.ReadReq_miss_latency::.cpu.inst    180559600                       # number of ReadReq miss cycles
system.cpu.icache.ReadReq_miss_latency::total    180559600                       # number of ReadReq miss cycles
system.cpu.icache.ReadReq_accesses::.cpu.inst       342616                       # number of ReadReq accesses(hits+misses)
system.cpu.icache.ReadReq_accesses::total       342616                       # number of ReadReq accesses(hits+misses)
system.cpu.icache.ReadReq_miss_rate::.cpu.inst     0.010615                       # miss rate for ReadReq accesses
system.cpu.icache.ReadReq_miss_rate::total     0.010615                       # miss rate for ReadReq accesses
system.cpu.icache.ReadReq_avg_miss_latency::.cpu.inst 49645.202090                       # average ReadReq miss latency
system.cpu.icache.ReadReq_avg_miss_latency::total 49645.202090                       # average ReadReq miss latency
system.cpu.icache.ReadReq_mshr_hits::.cpu.inst          740                       # number of ReadReq MSHR hits
system.cpu.icache.ReadReq_mshr_hits::total          740                       # number of ReadReq MSHR hits
system.cpu.icache.ReadReq_mshr_misses::.cpu.inst         2897                       # number of ReadReq MSHR misses
system.cpu.icache.ReadReq_mshr_misses::total         2897                       # number of ReadReq MSHR misses
system.cpu.icache.ReadReq_mshr_miss_latency::.cpu.inst    144425200                       # number of ReadReq MSHR miss cycles
system.cpu.icache.ReadReq_mshr_miss_latency::total    144425200                       # number of ReadReq MSHR miss cycles
system.cpu.icache.ReadReq_mshr_miss_rate::.cpu.inst     0.008456                       # mshr miss rate for ReadReq accesses
system.cpu.icache.ReadReq_mshr_miss_rate::total     0.008456                       # mshr miss rate for ReadReq accesses
system.cpu.icache.ReadReq_avg_mshr_miss_latency::.cpu.inst 49853.365551                       # average ReadReq mshr miss latency
system.cpu.icache.ReadReq_avg_mshr_miss_latency::total 49853.365551                       # average ReadReq mshr miss latency
system.cpu.icache.prefetcher.pwrStateResidencyTicks::UNDEFINED   1286664800                       # Cumulative time (in ticks) in various power states
system.cpu.icache.tags.pwrStateResidencyTicks::UNDEFINED   1286664800                       # Cumulative time (in ticks) in various power states
system.cpu.icache.tags.tagsinuse           253.840725                       # Cycle average of tags in use
system.cpu.icache.tags.total_refs              279855                       # Total number of references to valid blocks.
system.cpu.icache.tags.sampled_refs              2641                       # Sample count of references to valid blocks.
system.cpu.icache.tags.avg_refs            105.965543                       # Average number of references to valid blocks.
system.cpu.icache.tags.warmup_cycle             66400                       # Cycle when the warmup percentage was hit.
system.cpu.icache.tags.occ_blocks::.cpu.inst   253.840725                       # Average occupied blocks per requestor
system.cpu.icache.tags.occ_percent::.cpu.inst     0.991565                       # Average percentage of cache occupancy
system.cpu.icache.tags.occ_percent::total     0.991565                       # Average percentage of cache occupancy
system.cpu.icache.tags.occ_task_id_blocks::1024          256                       # Occupied blocks per task id
system.cpu.icache.tags.age_task_id_blocks_1024::0          102                       # Occupied blocks per task id
system.cpu.icache.tags.age_task_id_blocks_1024::1            7                       # Occupied blocks per task id
system.cpu.icache.tags.age_task_id_blocks_1024::2          143                       # Occupied blocks per task id
system.cpu.icache.tags.age_task_id_blocks_1024::3            4                       # Occupied blocks per task id
system.cpu.icache.tags.occ_task_id_percent::1024            1                       # Percentage of cache occupancy per task id
system.cpu.icache.tags.tag_accesses            688129                       # Number of tag accesses
system.cpu.icache.tags.data_accesses           688129                       # Number of data accesses
system.cpu.dtb.walker.pwrStateResidencyTicks::UNDEFINED   1286664800                       # Cumulative time (in ticks) in various power states
system.cpu.interrupts.clk_domain.clock           6400                       # Clock period in ticks
system.cpu.itb.walker.pwrStateResidencyTicks::UNDEFINED   1286664800                       # Cumulative time (in ticks) in various power states
system.cpu.dcache.pwrStateResidencyTicks::UNDEFINED   1286664800                       # Cumulative time (in ticks) in various power states
system.cpu.dcache.demand_hits::.cpu.data       883980                       # number of demand (read+write) hits
system.cpu.dcache.demand_hits::total           883980                       # number of demand (read+write) hits
system.cpu.dcache.overall_hits::.cpu.data       883980                       # number of overall hits
system.cpu.dcache.overall_hits::total          883980                       # number of overall hits
system.cpu.dcache.demand_misses::.cpu.data        35612                       # number of demand (read+write) misses
system.cpu.dcache.demand_misses::total          35612                       # number of demand (read+write) misses
system.cpu.dcache.overall_misses::.cpu.data        35612                       # number of overall misses
system.cpu.dcache.overall_misses::total         35612                       # number of overall misses
system.cpu.dcache.demand_miss_latency::.cpu.data   1746019600                       # number of demand (read+write) miss cycles
system.cpu.dcache.demand_miss_latency::total   1746019600                       # number of demand (read+write) miss cycles
system.cpu.dcache.overall_miss_latency::.cpu.data   1746019600                       # number of overall miss cycles
system.cpu.dcache.overall_miss_latency::total   1746019600                       # number of overall miss cycles
system.cpu.dcache.demand_accesses::.cpu.data       919592                       # number of demand (read+write) accesses
system.cpu.dcache.demand_accesses::total       919592                       # number of demand (read+write) accesses
system.cpu.dcache.overall_accesses::.cpu.data       919592                       # number of overall (read+write) accesses
system.cpu.dcache.overall_accesses::total       919592                       # number of overall (read+write) accesses
system.cpu.dcache.demand_miss_rate::.cpu.data     0.038726                       # miss rate for demand accesses
system.cpu.dcache.demand_miss_rate::total     0.038726                       # miss rate for demand accesses
system.cpu.dcache.overall_miss_rate::.cpu.data     0.038726                       # miss rate for overall accesses
system.cpu.dcache.overall_miss_rate::total     0.038726                       # miss rate for overall accesses
system.cpu.dcache.demand_avg_miss_latency::.cpu.data 49028.967764                       # average overall miss latency
system.cpu.dcache.demand_avg_miss_latency::total 49028.967764                       # average overall miss latency
system.cpu.dcache.overall_avg_miss_latency::.cpu.data 49028.967764                       # average overall miss latency
system.cpu.dcache.overall_avg_miss_latency::total 49028.967764                       # average overall miss latency
system.cpu.dcache.blocked_cycles::no_mshrs        27499                       # number of cycles access was blocked
system.cpu.dcache.blocked_cycles::no_targets          333                       # number of cycles access was blocked
system.cpu.dcache.blocked::no_mshrs               743                       # number of cycles access was blocked
system.cpu.dcache.blocked::no_targets               2                       # number of cycles access was blocked
system.cpu.dcache.avg_blocked_cycles::no_mshrs    37.010767                       # average number of cycles each access was blocked
system.cpu.dcache.avg_blocked_cycles::no_targets   166.500000                       # average number of cycles each access was blocked
system.cpu.dcache.unused_prefetches              1779                       # number of HardPF blocks evicted w/o reference
system.cpu.dcache.writebacks::.writebacks         2821                       # number of writebacks
system.cpu.dcache.writebacks::total              2821                       # number of writebacks
system.cpu.dcache.demand_mshr_hits::.cpu.data        22791                       # number of demand (read+write) MSHR hits
system.cpu.dcache.demand_mshr_hits::total        22791                       # number of demand (read+write) MSHR hits
system.cpu.dcache.overall_mshr_hits::.cpu.data        22791                       # number of overall MSHR hits
system.cpu.dcache.overall_mshr_hits::total        22791                       # number of overall MSHR hits
system.cpu.dcache.demand_mshr_misses::.cpu.data        12821                       # number of demand (read+write) MSHR misses
system.cpu.dcache.demand_mshr_misses::total        12821                       # number of demand (read+write) MSHR misses
system.cpu.dcache.overall_mshr_misses::.cpu.data        12821                       # number of overall MSHR misses
system.cpu.dcache.overall_mshr_misses::.cpu.dcache.prefetcher         4183                       # number of overall MSHR misses
system.cpu.dcache.overall_mshr_misses::total        17004                       # number of overall MSHR misses
system.cpu.dcache.demand_mshr_miss_latency::.cpu.data    593357600                       # number of demand (read+write) MSHR miss cycles
system.cpu.dcache.demand_mshr_miss_latency::total    593357600                       # number of demand (read+write) MSHR miss cycles
system.cpu.dcache.overall_mshr_miss_latency::.cpu.data    593357600                       # number of overall MSHR miss cycles
system.cpu.dcache.overall_mshr_miss_latency::.cpu.dcache.prefetcher    242466802                       # number of overall MSHR miss cycles
system.cpu.dcache.overall_mshr_miss_latency::total    835824402                       # number of overall MSHR miss cycles
system.cpu.dcache.demand_mshr_miss_rate::.cpu.data     0.013942                       # mshr miss rate for demand accesses
system.cpu.dcache.demand_mshr_miss_rate::total     0.013942                       # mshr miss rate for demand accesses
system.cpu.dcache.overall_mshr_miss_rate::.cpu.data     0.013942                       # mshr miss rate for overall accesses
system.cpu.dcache.overall_mshr_miss_rate::.cpu.dcache.prefetcher          inf                       # mshr miss rate for overall accesses
system.cpu.dcache.overall_mshr_miss_rate::total     0.018491                       # mshr miss rate for overall accesses
system.cpu.dcache.demand_avg_mshr_miss_latency::.cpu.data 46280.134155                       # average overall mshr miss latency
system.cpu.dcache.demand_avg_mshr_miss_latency::total 46280.134155                       # average overall mshr miss latency
system.cpu.dcache.overall_avg_mshr_miss_latency::.cpu.data 46280.134155                       # average overall mshr miss latency
system.cpu.dcache.overall_avg_mshr_miss_latency::.cpu.dcache.prefetcher 57964.810423                       # average overall mshr miss latency
system.cpu.dcache.overall_avg_mshr_miss_latency::total 49154.575512                       # average overall mshr miss latency
system.cpu.dcache.replacements                  15980                       # number of replacements
system.cpu.dcache.ReadReq_hits::.cpu.data       628686                       # number of ReadReq hits
system.cpu.dcache.ReadReq_hits::total          628686                       # number of ReadReq hits
system.cpu.dcache.ReadReq_misses::.cpu.data        33343                       # number of ReadReq misses
system.cpu.dcache.ReadReq_misses::total         33343                       # number of ReadReq misses
system.cpu.dcache.ReadReq_miss_latency::.cpu.data   1632057200                       # number of ReadReq miss cycles
system.cpu.dcache.ReadReq_miss_latency::total   1632057200                       # number of ReadReq miss cycles
system.cpu.dcache.ReadReq_accesses::.cpu.data       662029                       # number of ReadReq accesses(hits+misses)
system.cpu.dcache.ReadReq_accesses::total       662029                       # number of ReadReq accesses(hits+misses)
system.cpu.dcache.ReadReq_miss_rate::.cpu.data     0.050365                       # miss rate for ReadReq accesses
system.cpu.dcache.ReadReq_miss_rate::total     0.050365                       # miss rate for ReadReq accesses
system.cpu.dcache.ReadReq_avg_miss_latency::.cpu.data 48947.521219                       # average ReadReq miss latency
system.cpu.dcache.ReadReq_avg_miss_latency::total 48947.521219                       # average ReadReq miss latency
system.cpu.dcache.ReadReq_mshr_hits::.cpu.data        22752                       # number of ReadReq MSHR hits
system.cpu.dcache.ReadReq_mshr_hits::total        22752                       # number of ReadReq MSHR hits
system.cpu.dcache.ReadReq_mshr_misses::.cpu.data        10591                       # number of ReadReq MSHR misses
system.cpu.dcache.ReadReq_mshr_misses::total        10591                       # number of ReadReq MSHR misses
system.cpu.dcache.ReadReq_mshr_miss_latency::.cpu.data    482400400                       # number of ReadReq MSHR miss cycles
system.cpu.dcache.ReadReq_mshr_miss_latency::total    482400400                       # number of ReadReq MSHR miss cycles
system.cpu.dcache.ReadReq_mshr_miss_rate::.cpu.data     0.015998                       # mshr miss rate for ReadReq accesses
system.cpu.dcache.ReadReq_mshr_miss_rate::total     0.015998                       # mshr miss rate for ReadReq accesses
system.cpu.dcache.ReadReq_avg_mshr_miss_latency::.cpu.data 45548.144651                       # average ReadReq mshr miss latency
system.cpu.dcache.ReadReq_avg_mshr_miss_latency::total 45548.144651                       # average ReadReq mshr miss latency
system.cpu.dcache.WriteReq_hits::.cpu.data       255294                       # number of WriteReq hits
system.cpu.dcache.WriteReq_hits::total         255294                       # number of WriteReq hits
system.cpu.dcache.WriteReq_misses::.cpu.data         2269                       # number of WriteReq misses
system.cpu.dcache.WriteReq_misses::total         2269                       # number of WriteReq misses
system.cpu.dcache.WriteReq_miss_latency::.cpu.data    113962400                       # number of WriteReq miss cycles
system.cpu.dcache.WriteReq_miss_latency::total    113962400                       # number of WriteReq miss cycles
system.cpu.dcache.WriteReq_accesses::.cpu.data       257563                       # number of WriteReq accesses(hits+misses)
system.cpu.dcache.WriteReq_accesses::total       257563                       # number of WriteReq accesses(hits+misses)
system.cpu.dcache.WriteReq_miss_rate::.cpu.data     0.008809                       # miss rate for WriteReq accesses
system.cpu.dcache.WriteReq_miss_rate::total     0.008809                       # miss rate for WriteReq accesses
system.cpu.dcache.WriteReq_avg_miss_latency::.cpu.data 50225.826355                       # average WriteReq miss latency
system.cpu.dcache.WriteReq_avg_miss_latency::total 50225.826355                       # average WriteReq miss latency
system.cpu.dcache.WriteReq_mshr_hits::.cpu.data           39                       # number of WriteReq MSHR hits
system.cpu.dcache.WriteReq_mshr_hits::total           39                       # number of WriteReq MSHR hits
system.cpu.dcache.WriteReq_mshr_misses::.cpu.data         2230                       # number of WriteReq MSHR misses
[...]
system.l2cache.demand_mshr_misses::.cpu.data          148                       # number of demand (read+write) MSHR misses
system.l2cache.demand_mshr_misses::.cpu.dcache.prefetcher           40                       # number of demand (read+write) MSHR misses
system.l2cache.demand_mshr_misses::total          451                       # number of demand (read+write) MSHR misses
system.l2cache.overall_mshr_misses::.cpu.inst          263                       # number of overall MSHR misses
system.l2cache.overall_mshr_misses::.cpu.data          148                       # number of overall MSHR misses
system.l2cache.overall_mshr_misses::.cpu.dcache.prefetcher           40                       # number of overall MSHR misses
system.l2cache.overall_mshr_misses::total          451                       # number of overall MSHR misses
system.l2cache.demand_mshr_miss_latency::.cpu.inst     15586400                       # number of demand (read+write) MSHR miss cycles
system.l2cache.demand_mshr_miss_latency::.cpu.data      9015200                       # number of demand (read+write) MSHR miss cycles
system.l2cache.demand_mshr_miss_latency::.cpu.dcache.prefetcher      2401559                       # number of demand (read+write) MSHR miss cycles
system.l2cache.demand_mshr_miss_latency::total     27003159                       # number of demand (read+write) MSHR miss cycles
system.l2cache.overall_mshr_miss_latency::.cpu.inst     15586400                       # number of overall MSHR miss cycles
system.l2cache.overall_mshr_miss_latency::.cpu.data      9015200                       # number of overall MSHR miss cycles
system.l2cache.overall_mshr_miss_latency::.cpu.dcache.prefetcher      2401559                       # number of overall MSHR miss cycles
system.l2cache.overall_mshr_miss_latency::total     27003159                       # number of overall MSHR miss cycles
system.l2cache.demand_mshr_miss_rate::.cpu.inst     0.457391                       # mshr miss rate for demand accesses
system.l2cache.demand_mshr_miss_rate::.cpu.data     0.461059                       # mshr miss rate for demand accesses
system.l2cache.demand_mshr_miss_rate::.cpu.dcache.prefetcher     0.800000                       # mshr miss rate for demand accesses
system.l2cache.demand_mshr_miss_rate::total     0.476744                       # mshr miss rate for demand accesses
system.l2cache.overall_mshr_miss_rate::.cpu.inst     0.457391                       # mshr miss rate for overall accesses
system.l2cache.overall_mshr_miss_rate::.cpu.data     0.461059                       # mshr miss rate for overall accesses
system.l2cache.overall_mshr_miss_rate::.cpu.dcache.prefetcher     0.800000                       # mshr miss rate for overall accesses
system.l2cache.overall_mshr_miss_rate::total     0.476744                       # mshr miss rate for overall accesses
system.l2cache.demand_avg_mshr_miss_latency::.cpu.inst 59263.878327                       # average overall mshr miss latency
system.l2cache.demand_avg_mshr_miss_latency::.cpu.data 60913.513514                       # average overall mshr miss latency
system.l2cache.demand_avg_mshr_miss_latency::.cpu.dcache.prefetcher 60038.975000                       # average overall mshr miss latency
system.l2cache.demand_avg_mshr_miss_latency::total 59873.966741                       # average overall mshr miss latency
system.l2cache.overall_avg_mshr_miss_latency::.cpu.inst 59263.878327                       # average overall mshr miss latency
system.l2cache.overall_avg_mshr_miss_latency::.cpu.data 60913.513514                       # average overall mshr miss latency
system.l2cache.overall_avg_mshr_miss_latency::.cpu.dcache.prefetcher 60038.975000                       # average overall mshr miss latency
system.l2cache.overall_avg_mshr_miss_latency::total 59873.966741                       # average overall mshr miss latency
system.l2cache.replacements                       463                       # number of replacements
system.l2cache.WritebackDirty_hits::.writebacks          145                       # number of WritebackDirty hits
system.l2cache.WritebackDirty_hits::total          145                       # number of WritebackDirty hits
system.l2cache.WritebackDirty_accesses::.writebacks          145                       # number of WritebackDirty accesses(hits+misses)
system.l2cache.WritebackDirty_accesses::total          145                       # number of WritebackDirty accesses(hits+misses)
system.l2cache.CleanEvict_mshr_misses::.writebacks           11                       # number of CleanEvict MSHR misses
system.l2cache.CleanEvict_mshr_misses::total           11                       # number of CleanEvict MSHR misses
system.l2cache.CleanEvict_mshr_miss_rate::.writebacks          inf                       # mshr miss rate for CleanEvict accesses
system.l2cache.CleanEvict_mshr_miss_rate::total          inf                       # mshr miss rate for CleanEvict accesses
system.l2cache.ReadExReq_hits::.cpu.data           37                       # number of ReadExReq hits
system.l2cache.ReadExReq_hits::total               37                       # number of ReadExReq hits
system.l2cache.ReadExReq_misses::.cpu.data           20                       # number of ReadExReq misses
system.l2cache.ReadExReq_misses::total             20                       # number of ReadExReq misses
system.l2cache.ReadExReq_miss_latency::.cpu.data      1478400                       # number of ReadExReq miss cycles
system.l2cache.ReadExReq_miss_latency::total      1478400                       # number of ReadExReq miss cycles
system.l2cache.ReadExReq_accesses::.cpu.data           57                       # number of ReadExReq accesses(hits+misses)
system.l2cache.ReadExReq_accesses::total           57                       # number of ReadExReq accesses(hits+misses)
system.l2cache.ReadExReq_miss_rate::.cpu.data     0.350877                       # miss rate for ReadExReq accesses
system.l2cache.ReadExReq_miss_rate::total     0.350877                       # miss rate for ReadExReq accesses
system.l2cache.ReadExReq_avg_miss_latency::.cpu.data        73920                       # average ReadExReq miss latency
system.l2cache.ReadExReq_avg_miss_latency::total        73920                       # average ReadExReq miss latency
system.l2cache.ReadExReq_mshr_misses::.cpu.data           20                       # number of ReadExReq MSHR misses
system.l2cache.ReadExReq_mshr_misses::total           20                       # number of ReadExReq MSHR misses
system.l2cache.ReadExReq_mshr_miss_latency::.cpu.data      1318400                       # number of ReadExReq MSHR miss cycles
system.l2cache.ReadExReq_mshr_miss_latency::total      1318400                       # number of ReadExReq MSHR miss cycles
system.l2cache.ReadExReq_mshr_miss_rate::.cpu.data     0.350877                       # mshr miss rate for ReadExReq accesses
system.l2cache.ReadExReq_mshr_miss_rate::total     0.350877                       # mshr miss rate for ReadExReq accesses
system.l2cache.ReadExReq_avg_mshr_miss_latency::.cpu.data        65920                       # average ReadExReq mshr miss latency
system.l2cache.ReadExReq_avg_mshr_miss_latency::total        65920                       # average ReadExReq mshr miss latency
system.l2cache.ReadSharedReq_hits::.cpu.inst          312                       # number of ReadSharedReq hits
system.l2cache.ReadSharedReq_hits::.cpu.data          136                       # number of ReadSharedReq hits
system.l2cache.ReadSharedReq_hits::.cpu.dcache.prefetcher           10                       # number of ReadSharedReq hits
system.l2cache.ReadSharedReq_hits::total          458                       # number of ReadSharedReq hits
system.l2cache.ReadSharedReq_misses::.cpu.inst          263                       # number of ReadSharedReq misses
system.l2cache.ReadSharedReq_misses::.cpu.data          128                       # number of ReadSharedReq misses
system.l2cache.ReadSharedReq_misses::.cpu.dcache.prefetcher           40                       # number of ReadSharedReq misses
system.l2cache.ReadSharedReq_misses::total          431                       # number of ReadSharedReq misses
system.l2cache.ReadSharedReq_miss_latency::.cpu.inst     17682400                       # number of ReadSharedReq miss cycles
system.l2cache.ReadSharedReq_miss_latency::.cpu.data      8720800                       # number of ReadSharedReq miss cycles
system.l2cache.ReadSharedReq_miss_latency::.cpu.dcache.prefetcher      2721559                       # number of ReadSharedReq miss cycles
system.l2cache.ReadSharedReq_miss_latency::total     29124759                       # number of ReadSharedReq miss cycles
system.l2cache.ReadSharedReq_accesses::.cpu.inst          575                       # number of ReadSharedReq accesses(hits+misses)
system.l2cache.ReadSharedReq_accesses::.cpu.data          264                       # number of ReadSharedReq accesses(hits+misses)
system.l2cache.ReadSharedReq_accesses::.cpu.dcache.prefetcher           50                       # number of ReadSharedReq accesses(hits+misses)
system.l2cache.ReadSharedReq_accesses::total          889                       # number of ReadSharedReq accesses(hits+misses)
system.l2cache.ReadSharedReq_miss_rate::.cpu.inst     0.457391                       # miss rate for ReadSharedReq accesses
system.l2cache.ReadSharedReq_miss_rate::.cpu.data     0.484848                       # miss rate for ReadSharedReq accesses
system.l2cache.ReadSharedReq_miss_rate::.cpu.dcache.prefetcher     0.800000                       # miss rate for ReadSharedReq accesses
system.l2cache.ReadSharedReq_miss_rate::total     0.484814                       # miss rate for ReadSharedReq accesses
system.l2cache.ReadSharedReq_avg_miss_latency::.cpu.inst 67233.460076                       # average ReadSharedReq miss latency
system.l2cache.ReadSharedReq_avg_miss_latency::.cpu.data 68131.250000                       # average ReadSharedReq miss latency
system.l2cache.ReadSharedReq_avg_miss_latency::.cpu.dcache.prefetcher 68038.975000                       # average ReadSharedReq miss latency
system.l2cache.ReadSharedReq_avg_miss_latency::total 67574.846868                       # average ReadSharedReq miss latency
system.l2cache.ReadSharedReq_mshr_misses::.cpu.inst          263                       # number of ReadSharedReq MSHR misses
system.l2cache.ReadSharedReq_mshr_misses::.cpu.data          128                       # number of ReadSharedReq MSHR misses
system.l2cache.ReadSharedReq_mshr_misses::.cpu.dcache.prefetcher           40                       # number of ReadSharedReq MSHR misses
system.l2cache.ReadSharedReq_mshr_misses::total          431                       # number of ReadSharedReq MSHR misses
system.l2cache.ReadSharedReq_mshr_miss_latency::.cpu.inst     15586400                       # number of ReadSharedReq MSHR miss cycles
system.l2cache.ReadSharedReq_mshr_miss_latency::.cpu.data      7696800                       # number of ReadSharedReq MSHR miss cycles
system.l2cache.ReadSharedReq_mshr_miss_latency::.cpu.dcache.prefetcher      2401559                       # number of ReadSharedReq MSHR miss cycles
system.l2cache.ReadSharedReq_mshr_miss_latency::total     25684759                       # number of ReadSharedReq MSHR miss cycles
system.l2cache.ReadSharedReq_mshr_miss_rate::.cpu.inst     0.457391                       # mshr miss rate for ReadSharedReq accesses
system.l2cache.ReadSharedReq_mshr_miss_rate::.cpu.data     0.484848                       # mshr miss rate for ReadSharedReq accesses
system.l2cache.ReadSharedReq_mshr_miss_rate::.cpu.dcache.prefetcher     0.800000                       # mshr miss rate for ReadSharedReq accesses
system.l2cache.ReadSharedReq_mshr_miss_rate::total     0.484814                       # mshr miss rate for ReadSharedReq accesses
system.l2cache.ReadSharedReq_avg_mshr_miss_latency::.cpu.inst 59263.878327                       # average ReadSharedReq mshr miss latency
system.l2cache.ReadSharedReq_avg_mshr_miss_latency::.cpu.data 60131.250000                       # average ReadSharedReq mshr miss latency
system.l2cache.ReadSharedReq_avg_mshr_miss_latency::.cpu.dcache.prefetcher 60038.975000                       # average ReadSharedReq mshr miss latency
system.l2cache.ReadSharedReq_avg_mshr_miss_latency::total 59593.408353                       # average ReadSharedReq mshr miss latency
system.l2cache.prefetcher.pwrStateResidencyTicks::UNDEFINED    205188400                       # Cumulative time (in ticks) in various power states
system.l2cache.tags.pwrStateResidencyTicks::UNDEFINED    205188400                       # Cumulative time (in ticks) in various power states
system.l2cache.tags.tagsinuse                    4096                       # Cycle average of tags in use
system.l2cache.tags.total_refs                  14050                       # Total number of references to valid blocks.
system.l2cache.tags.sampled_refs                 4559                       # Sample count of references to valid blocks.
system.l2cache.tags.avg_refs                 3.081816                       # Average number of references to valid blocks.
system.l2cache.tags.warmup_cycle                    0                       # Cycle when the warmup percentage was hit.
system.l2cache.tags.occ_blocks::.writebacks    41.983960                       # Average occupied blocks per requestor
system.l2cache.tags.occ_blocks::.cpu.inst  1116.049284                       # Average occupied blocks per requestor
system.l2cache.tags.occ_blocks::.cpu.data  1937.307157                       # Average occupied blocks per requestor
system.l2cache.tags.occ_blocks::.cpu.dcache.prefetcher   855.859017                       # Average occupied blocks per requestor
system.l2cache.tags.occ_blocks::.l2cache.prefetcher   144.800581                       # Average occupied blocks per requestor
system.l2cache.tags.occ_percent::.writebacks     0.010250                       # Average percentage of cache occupancy
system.l2cache.tags.occ_percent::.cpu.inst     0.272473                       # Average percentage of cache occupancy
system.l2cache.tags.occ_percent::.cpu.data     0.472975                       # Average percentage of cache occupancy
system.l2cache.tags.occ_percent::.cpu.dcache.prefetcher     0.208950                       # Average percentage of cache occupancy
system.l2cache.tags.occ_percent::.l2cache.prefetcher     0.035352                       # Average percentage of cache occupancy
system.l2cache.tags.occ_percent::total              1                       # Average percentage of cache occupancy
system.l2cache.tags.occ_task_id_blocks::1022          932                       # Occupied blocks per task id
system.l2cache.tags.occ_task_id_blocks::1024         3164                       # Occupied blocks per task id
system.l2cache.tags.age_task_id_blocks_1022::0            7                       # Occupied blocks per task id
system.l2cache.tags.age_task_id_blocks_1022::1            8                       # Occupied blocks per task id
system.l2cache.tags.age_task_id_blocks_1022::2          866                       # Occupied blocks per task id
system.l2cache.tags.age_task_id_blocks_1022::3           51                       # Occupied blocks per task id
system.l2cache.tags.age_task_id_blocks_1024::0          168                       # Occupied blocks per task id
system.l2cache.tags.age_task_id_blocks_1024::1          121                       # Occupied blocks per task id
system.l2cache.tags.age_task_id_blocks_1024::2         2624                       # Occupied blocks per task id
system.l2cache.tags.age_task_id_blocks_1024::3          251                       # Occupied blocks per task id
system.l2cache.tags.occ_task_id_percent::1022     0.227539                       # Percentage of cache occupancy per task id
system.l2cache.tags.occ_task_id_percent::1024     0.772461                       # Percentage of cache occupancy per task id
system.l2cache.tags.tag_accesses                15591                       # Number of tag accesses
system.l2cache.tags.data_accesses               15591                       # Number of data accesses
system.mem_ctrl.pwrStateResidencyTicks::UNDEFINED    205188400                       # Cumulative time (in ticks) in various power states
system.mem_ctrl.bytes_read::.cpu.inst           16768                       # Number of bytes read from this memory
system.mem_ctrl.bytes_read::.cpu.data            9472                       # Number of bytes read from this memory
system.mem_ctrl.bytes_read::.cpu.dcache.prefetcher         2560                       # Number of bytes read from this memory
system.mem_ctrl.bytes_read::total               28800                       # Number of bytes read from this memory
system.mem_ctrl.bytes_inst_read::.cpu.inst        16768                       # Number of instructions bytes read from this memory
system.mem_ctrl.bytes_inst_read::total          16768                       # Number of instructions bytes read from this memory
system.mem_ctrl.bytes_written::.writebacks         2304                       # Number of bytes written to this memory
system.mem_ctrl.bytes_written::total             2304                       # Number of bytes written to this memory
system.mem_ctrl.num_reads::.cpu.inst              262                       # Number of read requests responded to by this memory
system.mem_ctrl.num_reads::.cpu.data              148                       # Number of read requests responded to by this memory
system.mem_ctrl.num_reads::.cpu.dcache.prefetcher           40                       # Number of read requests responded to by this memory
system.mem_ctrl.num_reads::total                  450                       # Number of read requests responded to by this memory
system.mem_ctrl.num_writes::.writebacks            36                       # Number of write requests responded to by this memory
system.mem_ctrl.num_writes::total                  36                       # Number of write requests responded to by this memory
system.mem_ctrl.bw_read::.cpu.inst           81720019                       # Total read bandwidth from this memory (bytes/s)
system.mem_ctrl.bw_read::.cpu.data           46162454                       # Total read bandwidth from this memory (bytes/s)
system.mem_ctrl.bw_read::.cpu.dcache.prefetcher     12476339                       # Total read bandwidth from this memory (bytes/s)
system.mem_ctrl.bw_read::total              140358812                       # Total read bandwidth from this memory (bytes/s)
system.mem_ctrl.bw_inst_read::.cpu.inst      81720019                       # Instruction read bandwidth from this memory (bytes/s)
system.mem_ctrl.bw_inst_read::total          81720019                       # Instruction read bandwidth from this memory (bytes/s)
system.mem_ctrl.bw_write::.writebacks        11228705                       # Write bandwidth from this memory (bytes/s)
system.mem_ctrl.bw_write::total              11228705                       # Write bandwidth from this memory (bytes/s)
system.mem_ctrl.bw_total::.writebacks        11228705                       # Total bandwidth to/from this memory (bytes/s)
system.mem_ctrl.bw_total::.cpu.inst          81720019                       # Total bandwidth to/from this memory (bytes/s)
system.mem_ctrl.bw_total::.cpu.data          46162454                       # Total bandwidth to/from this memory (bytes/s)
system.mem_ctrl.bw_total::.cpu.dcache.prefetcher     12476339                       # Total bandwidth to/from this memory (bytes/s)
system.mem_ctrl.bw_total::total             151587517                       # Total bandwidth to/from this memory (bytes/s)

---------- End Simulation Statistics   ----------
