
---------- Begin Simulation Statistics ----------
final_tick                                 1090607200                       # Number of ticks from beginning of simulation (restored from checkpoints and never reset)
host_inst_rate                                 186856                       # Simulator instruction rate (inst/s)
host_mem_usage                                4402744                       # Number of bytes of host memory used
host_op_rate                                   324491                       # Simulator op (including micro ops) rate (op/s)
host_seconds                                    11.12                       # Real time elapsed on the host
host_tick_rate                               98096033                       # Simulator tick rate (ticks/s)
sim_freq                                 1000000000000                       # Frequency of simulated ticks
sim_insts                                     2077400                       # Number of instructions simulated
sim_ops                                       3607604                       # Number of ops (including micro ops) simulated
sim_seconds                                  0.001091                       # Number of seconds simulated
sim_ticks                                  1090607200                       # Number of ticks simulated
system.cpu.branchPred.BTBCorrect                    0                       # Number of correct BTB predictions (this stat may not work properly.
system.cpu.branchPred.BTBHitPct              0.000000                       # BTB Hit Percentage
system.cpu.branchPred.BTBHits                       0                       # Number of BTB hits
system.cpu.branchPred.BTBLookups               437986                       # Number of BTB lookups
system.cpu.branchPred.RASInCorrect                  5                       # Number of incorrect RAS predictions.
system.cpu.branchPred.condIncorrect             24240                       # Number of conditional branches incorrect
system.cpu.branchPred.condPredicted            463600                       # Number of conditional branches predicted
system.cpu.branchPred.indirectHits             239608                       # Number of indirect target hits.
system.cpu.branchPred.indirectLookups          437986                       # Number of indirect predictor lookups.
system.cpu.branchPred.indirectMisses           198378                       # Number of indirect misses.
system.cpu.branchPred.lookups                  490551                       # Number of BP lookups
system.cpu.branchPred.usedRAS                   11666                       # Number of times the RAS was used to get a target.
system.cpu.branchPredindirectMispredicted        12165                       # Number of mispredicted indirect branches.
system.cpu.cc_regfile_reads                   2371901                       # number of cc regfile reads
system.cpu.cc_regfile_writes                  1955854                       # number of cc regfile writes
system.cpu.commit.amos                              0                       # Number of atomic instructions committed
system.cpu.commit.branchMispredicts             24322                       # The number of times a branch was mispredicted
system.cpu.commit.branches                     345393                       # Number of branches committed
system.cpu.commit.bw_lim_events                598515                       # number cycles where commit BW limit reached
system.cpu.commit.commitNonSpecStalls             732                       # The number of times commit has been forced to stall to communicate backwards
system.cpu.commit.commitSquashedInsts          889349                       # The number of squashed insts skipped by commit
system.cpu.commit.committedInsts              2077400                       # Number of instructions committed
system.cpu.commit.committedOps                3607604                       # Number of ops (including micro ops) committed
system.cpu.commit.committed_per_cycle::samples      2334904                       # Number of insts commited each cycle
system.cpu.commit.committed_per_cycle::mean     1.545076                       # Number of insts commited each cycle
system.cpu.commit.committed_per_cycle::stdev     1.723119                       # Number of insts commited each cycle
system.cpu.commit.committed_per_cycle::underflows            0      0.00%      0.00% # Number of insts commited each cycle
system.cpu.commit.committed_per_cycle::0      1152611     49.36%     49.36% # Number of insts commited each cycle
system.cpu.commit.committed_per_cycle::1       182691      7.82%     57.19% # Number of insts commited each cycle
system.cpu.commit.committed_per_cycle::2       172408      7.38%     64.57% # Number of insts commited each cycle
system.cpu.commit.committed_per_cycle::3       228679      9.79%     74.37% # Number of insts commited each cycle
system.cpu.commit.committed_per_cycle::4       598515     25.63%    100.00% # Number of insts commited each cycle
system.cpu.commit.committed_per_cycle::overflows            0      0.00%    100.00% # Number of insts commited each cycle
system.cpu.commit.committed_per_cycle::min_value            0                       # Number of insts commited each cycle
system.cpu.commit.committed_per_cycle::max_value            4                       # Number of insts commited each cycle
system.cpu.commit.committed_per_cycle::total      2334904                       # Number of insts commited each cycle
system.cpu.commit.fp_insts                      72844                       # Number of committed floating point instructions.
system.cpu.commit.function_calls                 9844                       # Number of function calls committed.
system.cpu.commit.int_insts                   3553437                       # Number of committed integer instructions.
system.cpu.commit.loads                        491604                       # Number of loads committed
system.cpu.commit.membars                           1                       # Number of memory barriers committed
system.cpu.commit.op_class_0::No_OpClass        20166      0.56%      0.56% # Class of committed instruction
system.cpu.commit.op_class_0::IntAlu          2843055     78.81%     79.37% # Class of committed instruction
system.cpu.commit.op_class_0::IntMult            2299      0.06%     79.43% # Class of committed instruction
system.cpu.commit.op_class_0::IntDiv            37816      1.05%     80.48% # Class of committed instruction
system.cpu.commit.op_class_0::FloatAdd           2834      0.08%     80.56% # Class of committed instruction
system.cpu.commit.op_class_0::FloatCmp              0      0.00%     80.56% # Class of committed instruction
system.cpu.commit.op_class_0::FloatCvt           1200      0.03%     80.59% # Class of committed instruction
system.cpu.commit.op_class_0::FloatMult             0      0.00%     80.59% # Class of committed instruction
system.cpu.commit.op_class_0::FloatMultAcc            0      0.00%     80.59% # Class of committed instruction
system.cpu.commit.op_class_0::FloatDiv              0      0.00%     80.59% # Class of committed instruction
system.cpu.commit.op_class_0::FloatMisc             0      0.00%     80.59% # Class of committed instruction
system.cpu.commit.op_class_0::FloatSqrt             0      0.00%     80.59% # Class of committed instruction
system.cpu.commit.op_class_0::SimdAdd            6184      0.17%     80.76% # Class of committed instruction
system.cpu.commit.op_class_0::SimdAddAcc            0      0.00%     80.76% # Class of committed instruction
system.cpu.commit.op_class_0::SimdAlu           11116      0.31%     81.07% # Class of committed instruction
system.cpu.commit.op_class_0::SimdCmp               0      0.00%     81.07% # Class of committed instruction
system.cpu.commit.op_class_0::SimdCvt           12050      0.33%     81.40% # Class of committed instruction
system.cpu.commit.op_class_0::SimdMisc           6479      0.18%     81.58% # Class of committed instruction
system.cpu.commit.op_class_0::SimdMult              0      0.00%     81.58% # Class of committed instruction
system.cpu.commit.op_class_0::SimdMultAcc            0      0.00%     81.58% # Class of committed instruction
system.cpu.commit.op_class_0::SimdShift          1055      0.03%     81.61% # Class of committed instruction
system.cpu.commit.op_class_0::SimdShiftAcc            0      0.00%     81.61% # Class of committed instruction
system.cpu.commit.op_class_0::SimdDiv               0      0.00%     81.61% # Class of committed instruction
system.cpu.commit.op_class_0::SimdSqrt              0      0.00%     81.61% # Class of committed instruction
system.cpu.commit.op_class_0::SimdFloatAdd            0      0.00%     81.61% # Class of committed instruction
system.cpu.commit.op_class_0::SimdFloatAlu            0      0.00%     81.61% # Class of committed instruction
system.cpu.commit.op_class_0::SimdFloatCmp            0      0.00%     81.61% # Class of committed instruction
system.cpu.commit.op_class_0::SimdFloatCvt            0      0.00%     81.61% # Class of committed instruction
system.cpu.commit.op_class_0::SimdFloatDiv            0      0.00%     81.61% # Class of committed instruction
system.cpu.commit.op_class_0::SimdFloatMisc            0      0.00%     81.61% # Class of committed instruction
system.cpu.commit.op_class_0::SimdFloatMult            0      0.00%     81.61% # Class of committed instruction
system.cpu.commit.op_class_0::SimdFloatMultAcc            0      0.00%     81.61% # Class of committed instruction
system.cpu.commit.op_class_0::SimdFloatSqrt            0      0.00%     81.61% # Class of committed instruction
system.cpu.commit.op_class_0::SimdReduceAdd            0      0.00%     81.61% # Class of committed instruction
system.cpu.commit.op_class_0::SimdReduceAlu            0      0.00%     81.61% # Class of committed instruction
system.cpu.commit.op_class_0::SimdReduceCmp            0      0.00%     81.61% # Class of committed instruction
system.cpu.commit.op_class_0::SimdFloatReduceAdd            0      0.00%     81.61% # Class of committed instruction
system.cpu.commit.op_class_0::SimdFloatReduceCmp            0      0.00%     81.61% # Class of committed instruction
system.cpu.commit.op_class_0::SimdAes               0      0.00%     81.61% # Class of committed instruction
system.cpu.commit.op_class_0::SimdAesMix            0      0.00%     81.61% # Class of committed instruction
system.cpu.commit.op_class_0::SimdSha1Hash            0      0.00%     81.61% # Class of committed instruction
system.cpu.commit.op_class_0::SimdSha1Hash2            0      0.00%     81.61% # Class of committed instruction
system.cpu.commit.op_class_0::SimdSha256Hash            0      0.00%     81.61% # Class of committed instruction
system.cpu.commit.op_class_0::SimdSha256Hash2            0      0.00%     81.61% # Class of committed instruction
system.cpu.commit.op_class_0::SimdShaSigma2            0      0.00%     81.61% # Class of committed instruction
system.cpu.commit.op_class_0::SimdShaSigma3            0      0.00%     81.61% # Class of committed instruction
system.cpu.commit.op_class_0::SimdPredAlu            0      0.00%     81.61% # Class of committed instruction
system.cpu.commit.op_class_0::MemRead          472566     13.10%     94.71% # Class of committed instruction
system.cpu.commit.op_class_0::MemWrite         159677      4.43%     99.14% # Class of committed instruction
system.cpu.commit.op_class_0::FloatMemRead        19038      0.53%     99.67% # Class of committed instruction
system.cpu.commit.op_class_0::FloatMemWrite        12069      0.33%    100.00% # Class of committed instruction
system.cpu.commit.op_class_0::IprAccess             0      0.00%    100.00% # Class of committed instruction
system.cpu.commit.op_class_0::InstPrefetch            0      0.00%    100.00% # Class of committed instruction
system.cpu.commit.op_class_0::total           3607604                       # Class of committed instruction
system.cpu.commit.refs                         663350                       # Number of memory references committed
system.cpu.commit.swp_count                         0                       # Number of s/w prefetches committed
system.cpu.commit.vec_insts                         0                       # Number of committed Vector instructions.
system.cpu.committedInsts                     2077400                       # Number of Instructions Simulated
system.cpu.committedOps                       3607604                       # Number of Ops (including micro ops) Simulated
system.cpu.cpi                               1.312467                       # CPI: Cycles Per Instruction
system.cpu.cpi_total                         1.312467                       # CPI: Total CPI of All Threads
system.cpu.dcache.prefetcher.num_hwpf_issued         7738                       # number of hwpf issued
system.cpu.dcache.prefetcher.pfBufferHit        33404                       # number of redundant prefetches already in prefetch queue
system.cpu.dcache.prefetcher.pfIdentified        48316                       # number of prefetch candidates identified
system.cpu.dcache.prefetcher.pfInCache              0                       # number of redundant prefetches already in cache/mshr dropped
system.cpu.dcache.prefetcher.pfRemovedFull            0                       # number of prefetches dropped due to prefetch queue size
system.cpu.dcache.prefetcher.pfSpanPage          4348                       # number of prefetches that crossed the page
system.cpu.decode.BlockedCycles               1028005                       # Number of cycles decode is blocked
system.cpu.decode.DecodedInsts                4714238                       # Number of instructions handled by decode
system.cpu.decode.IdleCycles                   291662                       # Number of cycles decode is idle
system.cpu.decode.RunCycles                   1142523                       # Number of cycles decode is running
system.cpu.decode.SquashCycles                  24390                       # Number of cycles decode is squashing
system.cpu.decode.UnblockCycles                 90709                       # Number of cycles decode is unblocking
system.cpu.dtb.rdAccesses                      575591                       # TLB accesses on read requests
system.cpu.dtb.rdMisses                          2028                       # TLB misses on read requests
system.cpu.dtb.wrAccesses                      191928                       # TLB accesses on write requests
system.cpu.dtb.wrMisses                           164                       # TLB misses on write requests
system.cpu.fetch.Branches                      490551                       # Number of branches that fetch encountered
system.cpu.fetch.CacheLines                    241667                       # Number of cache lines fetched
system.cpu.fetch.Cycles                       2223340                       # Number of cycles fetch has run and was not squashing or blocked
system.cpu.fetch.IcacheSquashes                  4613                       # Number of outstanding Icache misses that were squashed
system.cpu.fetch.Insts                        2851339                       # Number of instructions fetch has processed
system.cpu.fetch.MiscStallCycles                  109                       # Number of cycles fetch has spent waiting on interrupts, or bad addresses, or out of MSHRs
system.cpu.fetch.PendingQuiesceStallCycles           10                       # Number of stall cycles due to pending quiesce instructions
system.cpu.fetch.PendingTrapStallCycles           599                       # Number of stall cycles due to pending traps
system.cpu.fetch.SquashCycles                   48780                       # Number of cycles fetch has spent squashing
system.cpu.fetch.branchRate                  0.179918                       # Number of branch fetches per cycle
system.cpu.fetch.icacheStallCycles             328841                       # Number of cycles fetch is stalled on an Icache miss
system.cpu.fetch.predictedBranches             251274                       # Number of branches that fetch has predicted taken
system.cpu.fetch.rate                        1.045780                       # Number of inst fetches per cycle
system.cpu.fetch.rateDist::samples            2577289                       # Number of instructions fetched each cycle (Total)
system.cpu.fetch.rateDist::mean              1.937134                       # Number of instructions fetched each cycle (Total)
system.cpu.fetch.rateDist::stdev             1.930812                       # Number of instructions fetched each cycle (Total)
system.cpu.fetch.rateDist::underflows               0      0.00%      0.00% # Number of instructions fetched each cycle (Total)
system.cpu.fetch.rateDist::0                  1224304     47.50%     47.50% # Number of instructions fetched each cycle (Total)
system.cpu.fetch.rateDist::1                    75006      2.91%     50.41% # Number of instructions fetched each cycle (Total)
system.cpu.fetch.rateDist::2                    58686      2.28%     52.69% # Number of instructions fetched each cycle (Total)
system.cpu.fetch.rateDist::3                    76995      2.99%     55.68% # Number of instructions fetched each cycle (Total)
system.cpu.fetch.rateDist::4                  1142298     44.32%    100.00% # Number of instructions fetched each cycle (Total)
system.cpu.fetch.rateDist::overflows                0      0.00%    100.00% # Number of instructions fetched each cycle (Total)
system.cpu.fetch.rateDist::min_value                0                       # Number of instructions fetched each cycle (Total)
system.cpu.fetch.rateDist::max_value                4                       # Number of instructions fetched each cycle (Total)
system.cpu.fetch.rateDist::total              2577289                       # Number of instructions fetched each cycle (Total)
system.cpu.fp_regfile_reads                    118544                       # number of floating regfile reads
system.cpu.fp_regfile_writes                    64791                       # number of floating regfile writes
system.cpu.fuPool.fu_ticks_busy::IntALU(0)    218344000                       # Total ticks fu was busy
system.cpu.fuPool.fu_ticks_busy::IntALU(1)    218344000                       # Total ticks fu was busy
system.cpu.fuPool.fu_ticks_busy::IntALU(2)    218344000                       # Total ticks fu was busy
system.cpu.fuPool.fu_ticks_busy::IntALU(3)    218344000                       # Total ticks fu was busy
system.cpu.fuPool.fu_ticks_busy::IntALU(4)    218343600                       # Total ticks fu was busy
system.cpu.fuPool.fu_ticks_busy::IntALU(5)    218343600                       # Total ticks fu was busy
system.cpu.fuPool.fu_ticks_busy::IntMultDiv(0)      8836000                       # Total ticks fu was busy
system.cpu.fuPool.fu_ticks_busy::IntMultDiv(1)      8835200                       # Total ticks fu was busy
system.cpu.fuPool.fu_ticks_busy::FP_ALU(0)       550400                       # Total ticks fu was busy
system.cpu.fuPool.fu_ticks_busy::FP_ALU(1)       550400                       # Total ticks fu was busy
system.cpu.fuPool.fu_ticks_busy::FP_ALU(2)       550400                       # Total ticks fu was busy
system.cpu.fuPool.fu_ticks_busy::FP_ALU(3)       550400                       # Total ticks fu was busy
system.cpu.fuPool.fu_ticks_busy::FP_MultDiv(0)            0                       # Total ticks fu was busy
system.cpu.fuPool.fu_ticks_busy::FP_MultDiv(1)            0                       # Total ticks fu was busy
system.cpu.fuPool.fu_ticks_busy::SIMD_Unit(0)      4348000                       # Total ticks fu was busy
system.cpu.fuPool.fu_ticks_busy::SIMD_Unit(1)      4302000                       # Total ticks fu was busy
system.cpu.fuPool.fu_ticks_busy::SIMD_Unit(2)      4512400                       # Total ticks fu was busy
system.cpu.fuPool.fu_ticks_busy::SIMD_Unit(3)      4549600                       # Total ticks fu was busy
system.cpu.fuPool.fu_ticks_busy::PredALU(0)            0                       # Total ticks fu was busy
system.cpu.fuPool.fu_ticks_busy::RdWrPort(0)     78275200                       # Total ticks fu was busy
system.cpu.fuPool.fu_ticks_busy::RdWrPort(1)     78201200                       # Total ticks fu was busy
system.cpu.fuPool.fu_ticks_busy::RdWrPort(2)     78212400                       # Total ticks fu was busy
system.cpu.fuPool.fu_ticks_busy::RdWrPort(3)     78230800                       # Total ticks fu was busy
system.cpu.fuPool.fu_ticks_busy::IprPort(0)            0                       # Total ticks fu was busy
system.cpu.fuPool.fu_ticks_busy::total     1660567600                       # Total ticks fu was busy
system.cpu.icache.prefetcher.num_hwpf_issued            0                       # number of hwpf issued
system.cpu.icache.prefetcher.pfBufferHit            0                       # number of redundant prefetches already in prefetch queue
system.cpu.icache.prefetcher.pfIdentified            0                       # number of prefetch candidates identified
system.cpu.icache.prefetcher.pfInCache              0                       # number of redundant prefetches already in cache/mshr dropped
system.cpu.icache.prefetcher.pfRemovedFull            0                       # number of prefetches dropped due to prefetch queue size
system.cpu.icache.prefetcher.pfSpanPage             0                       # number of prefetches that crossed the page
system.cpu.idleCycles                          149230                       # Total number of cycles that the CPU has spent unscheduled due to idling
system.cpu.iew.branchMispredicts                28728                       # Number of branch mispredicts detected at execute
system.cpu.iew.exec_branches                   376185                       # Number of branches executed
system.cpu.iew.exec_nop                             0                       # number of nop insts executed
system.cpu.iew.exec_rate                     1.519550                       # Inst execution rate
system.cpu.iew.exec_refs                       769247                       # number of memory reference insts executed
system.cpu.iew.exec_stores                     191917                       # Number of stores executed
system.cpu.iew.exec_swp                             0                       # number of swp insts executed
system.cpu.iew.iewBlockCycles                  682615                       # Number of cycles IEW is blocking
system.cpu.iew.iewDispLoadInsts                607913                       # Number of dispatched load instructions
system.cpu.iew.iewDispNonSpecInsts                914                       # Number of dispatched non-speculative instructions
system.cpu.iew.iewDispSquashedInsts               624                       # Number of squashed instructions skipped by dispatch
system.cpu.iew.iewDispStoreInsts               202496                       # Number of dispatched store instructions
system.cpu.iew.iewDispatchedInsts             4496877                       # Number of instructions dispatched to IQ
system.cpu.iew.iewExecLoadInsts                577330                       # Number of load instructions executed
system.cpu.iew.iewExecSquashedInsts             34420                       # Number of squashed instructions skipped in execute
system.cpu.iew.iewExecutedInsts               4143083                       # Number of executed instructions
system.cpu.iew.iewIQFullEvents                   3278                       # Number of times the IQ has become full, causing a stall
system.cpu.iew.iewIdleCycles                        0                       # Number of cycles IEW is idle
system.cpu.iew.iewLSQFullEvents                  9454                       # Number of times the LSQ has become full, causing a stall
system.cpu.iew.iewSquashCycles                  24390                       # Number of cycles IEW is squashing
system.cpu.iew.iewUnblockCycles                 15548                       # Number of cycles IEW is unblocking
system.cpu.iew.lsq.thread0.blockedLoads             0                       # Number of blocked loads due to partial load-store forwarding
system.cpu.iew.lsq.thread0.cacheBlocked           609                       # Number of times an access to memory failed due to the cache being blocked
system.cpu.iew.lsq.thread0.forwLoads            41095                       # Number of loads that had data forwarded from stores
system.cpu.iew.lsq.thread0.ignoredResponses          235                       # Number of memory responses ignored because the instruction is squashed
system.cpu.iew.lsq.thread0.invAddrLoads             0                       # Number of loads ignored due to an invalid address
system.cpu.iew.lsq.thread0.invAddrSwpfs             0                       # Number of software prefetches ignored due to an invalid address
system.cpu.iew.lsq.thread0.memOrderViolation           83                       # Number of memory ordering violations
system.cpu.iew.lsq.thread0.rescheduledLoads            0                       # Number of loads that were rescheduled
system.cpu.iew.lsq.thread0.squashedLoads       116307                       # Number of loads squashed
system.cpu.iew.lsq.thread0.squashedStores        30749                       # Number of stores squashed
system.cpu.iew.memOrderViolationEvents             83                       # Number of memory order violations
system.cpu.iew.predictedNotTakenIncorrect        20604                       # Number of branches that were predicted not taken incorrectly
system.cpu.iew.predictedTakenIncorrect           8124                       # Number of branches that were predicted taken incorrectly
system.cpu.iew.wb_consumers                   5824222                       # num instructions consuming a value
system.cpu.iew.wb_count                       4121117                       # cumulative count of insts written-back
system.cpu.iew.wb_fanout                     0.565884                       # average fanout of values written-back
system.cpu.iew.wb_producers                   3295833                       # num instructions producing a value
system.cpu.iew.wb_rate                       1.511494                       # insts written-back per cycle
system.cpu.iew.wb_sent                        4128026                       # cumulative count of insts sent to commit
system.cpu.int_regfile_reads                  6424410                       # number of integer regfile reads
system.cpu.int_regfile_writes                 3566093                       # number of integer regfile writes
system.cpu.ipc                               0.761924                       # IPC: Instructions Per Cycle
system.cpu.ipc_total                         0.761924                       # IPC: Total IPC of All Threads
system.cpu.iq.FU_type_0::No_OpClass             26084      0.62%      0.62% # Type of FU issued
system.cpu.iq.FU_type_0::IntAlu               3275159     78.40%     79.02% # Type of FU issued
system.cpu.iq.FU_type_0::IntMult                 2321      0.06%     79.08% # Type of FU issued
system.cpu.iq.FU_type_0::IntDiv                 41857      1.00%     80.08% # Type of FU issued
system.cpu.iq.FU_type_0::FloatAdd                4264      0.10%     80.18% # Type of FU issued
system.cpu.iq.FU_type_0::FloatCmp                   0      0.00%     80.18% # Type of FU issued
system.cpu.iq.FU_type_0::FloatCvt                1240      0.03%     80.21% # Type of FU issued
system.cpu.iq.FU_type_0::FloatMult                  0      0.00%     80.21% # Type of FU issued
system.cpu.iq.FU_type_0::FloatMultAcc               0      0.00%     80.21% # Type of FU issued
system.cpu.iq.FU_type_0::FloatDiv                   0      0.00%     80.21% # Type of FU issued
system.cpu.iq.FU_type_0::FloatMisc                  0      0.00%     80.21% # Type of FU issued
system.cpu.iq.FU_type_0::FloatSqrt                  0      0.00%     80.21% # Type of FU issued
system.cpu.iq.FU_type_0::SimdAdd                 6790      0.16%     80.38% # Type of FU issued
system.cpu.iq.FU_type_0::SimdAddAcc                 0      0.00%     80.38% # Type of FU issued
system.cpu.iq.FU_type_0::SimdAlu                14781      0.35%     80.73% # Type of FU issued
system.cpu.iq.FU_type_0::SimdCmp                    0      0.00%     80.73% # Type of FU issued
system.cpu.iq.FU_type_0::SimdCvt                13674      0.33%     81.06% # Type of FU issued
system.cpu.iq.FU_type_0::SimdMisc                7036      0.17%     81.23% # Type of FU issued
system.cpu.iq.FU_type_0::SimdMult                   0      0.00%     81.23% # Type of FU issued
system.cpu.iq.FU_type_0::SimdMultAcc                0      0.00%     81.23% # Type of FU issued
system.cpu.iq.FU_type_0::SimdShift               1999      0.05%     81.27% # Type of FU issued
system.cpu.iq.FU_type_0::SimdShiftAcc               0      0.00%     81.27% # Type of FU issued
system.cpu.iq.FU_type_0::SimdDiv                    0      0.00%     81.27% # Type of FU issued
system.cpu.iq.FU_type_0::SimdSqrt                   0      0.00%     81.27% # Type of FU issued
system.cpu.iq.FU_type_0::SimdFloatAdd               0      0.00%     81.27% # Type of FU issued
system.cpu.iq.FU_type_0::SimdFloatAlu               0      0.00%     81.27% # Type of FU issued
system.cpu.iq.FU_type_0::SimdFloatCmp               0      0.00%     81.27% # Type of FU issued
system.cpu.iq.FU_type_0::SimdFloatCvt               0      0.00%     81.27% # Type of FU issued
system.cpu.iq.FU_type_0::SimdFloatDiv               0      0.00%     81.27% # Type of FU issued
system.cpu.iq.FU_type_0::SimdFloatMisc              0      0.00%     81.27% # Type of FU issued
system.cpu.iq.FU_type_0::SimdFloatMult              0      0.00%     81.27% # Type of FU issued
system.cpu.iq.FU_type_0::SimdFloatMultAcc            0      0.00%     81.27% # Type of FU issued
system.cpu.iq.FU_type_0::SimdFloatSqrt              0      0.00%     81.27% # Type of FU issued
system.cpu.iq.FU_type_0::SimdReduceAdd              0      0.00%     81.27% # Type of FU issued
system.cpu.iq.FU_type_0::SimdReduceAlu              0      0.00%     81.27% # Type of FU issued
system.cpu.iq.FU_type_0::SimdReduceCmp              0      0.00%     81.27% # Type of FU issued
system.cpu.iq.FU_type_0::SimdFloatReduceAdd            0      0.00%     81.27% # Type of FU issued
system.cpu.iq.FU_type_0::SimdFloatReduceCmp            0      0.00%     81.27% # Type of FU issued
system.cpu.iq.FU_type_0::SimdAes                    0      0.00%     81.27% # Type of FU issued
system.cpu.iq.FU_type_0::SimdAesMix                 0      0.00%     81.27% # Type of FU issued
system.cpu.iq.FU_type_0::SimdSha1Hash               0      0.00%     81.27% # Type of FU issued
system.cpu.iq.FU_type_0::SimdSha1Hash2              0      0.00%     81.27% # Type of FU issued
system.cpu.iq.FU_type_0::SimdSha256Hash             0      0.00%     81.27% # Type of FU issued
system.cpu.iq.FU_type_0::SimdSha256Hash2            0      0.00%     81.27% # Type of FU issued
system.cpu.iq.FU_type_0::SimdShaSigma2              0      0.00%     81.27% # Type of FU issued
system.cpu.iq.FU_type_0::SimdShaSigma3              0      0.00%     81.27% # Type of FU issued
system.cpu.iq.FU_type_0::SimdPredAlu                0      0.00%     81.27% # Type of FU issued
system.cpu.iq.FU_type_0::MemRead               563221     13.48%     94.76% # Type of FU issued
system.cpu.iq.FU_type_0::MemWrite              180927      4.33%     99.09% # Type of FU issued
system.cpu.iq.FU_type_0::FloatMemRead           24475      0.59%     99.67% # Type of FU issued
system.cpu.iq.FU_type_0::FloatMemWrite          13678      0.33%    100.00% # Type of FU issued
system.cpu.iq.FU_type_0::IprAccess                  0      0.00%    100.00% # Type of FU issued
system.cpu.iq.FU_type_0::InstPrefetch               0      0.00%    100.00% # Type of FU issued
system.cpu.iq.FU_type_0::total                4177506                       # Type of FU issued
system.cpu.iq.fp_alu_accesses                   88901                       # Number of floating point alu accesses
system.cpu.iq.fp_inst_queue_reads              179064                       # Number of floating instruction queue reads
system.cpu.iq.fp_inst_queue_wakeup_accesses        85744                       # Number of floating instruction queue wakeup accesses
system.cpu.iq.fp_inst_queue_writes             127484                       # Number of floating instruction queue writes
system.cpu.iq.fu_busy_cnt                           0                       # FU busy when requested
system.cpu.iq.fu_busy_rate                          0                       # FU busy rate (busy events/executed inst)
system.cpu.iq.fu_full::No_OpClass                   0                       # attempts to use FU when none available
system.cpu.iq.fu_full::IntAlu                       0                       # attempts to use FU when none available
system.cpu.iq.fu_full::IntMult                      0                       # attempts to use FU when none available
system.cpu.iq.fu_full::IntDiv                       0                       # attempts to use FU when none available
system.cpu.iq.fu_full::FloatAdd                     0                       # attempts to use FU when none available
system.cpu.iq.fu_full::FloatCmp                     0                       # attempts to use FU when none available
system.cpu.iq.fu_full::FloatCvt                     0                       # attempts to use FU when none available
system.cpu.iq.fu_full::FloatMult                    0                       # attempts to use FU when none available
system.cpu.iq.fu_full::FloatMultAcc                 0                       # attempts to use FU when none available
system.cpu.iq.fu_full::FloatDiv                     0                       # attempts to use FU when none available
system.cpu.iq.fu_full::FloatMisc                    0                       # attempts to use FU when none available
system.cpu.iq.fu_full::FloatSqrt                    0                       # attempts to use FU when none available
system.cpu.iq.fu_full::SimdAdd                      0                       # attempts to use FU when none available
system.cpu.iq.fu_full::SimdAddAcc                   0                       # attempts to use FU when none available
system.cpu.iq.fu_full::SimdAlu                      0                       # attempts to use FU when none available
system.cpu.iq.fu_full::SimdCmp                      0                       # attempts to use FU when none available
system.cpu.iq.fu_full::SimdCvt                      0                       # attempts to use FU when none available
system.cpu.iq.fu_full::SimdMisc                     0                       # attempts to use FU when none available
system.cpu.iq.fu_full::SimdMult                     0                       # attempts to use FU when none available
system.cpu.iq.fu_full::SimdMultAcc                  0                       # attempts to use FU when none available
system.cpu.iq.fu_full::SimdShift                    0                       # attempts to use FU when none available
system.cpu.iq.fu_full::SimdShiftAcc                 0                       # attempts to use FU when none available
system.cpu.iq.fu_full::SimdDiv                      0                       # attempts to use FU when none available
system.cpu.iq.fu_full::SimdSqrt                     0                       # attempts to use FU when none available
system.cpu.iq.fu_full::SimdFloatAdd                 0                       # attempts to use FU when none available
system.cpu.iq.fu_full::SimdFloatAlu                 0                       # attempts to use FU when none available
system.cpu.iq.fu_full::SimdFloatCmp                 0                       # attempts to use FU when none available
system.cpu.iq.fu_full::SimdFloatCvt                 0                       # attempts to use FU when none available
system.cpu.iq.fu_full::SimdFloatDiv                 0                       # attempts to use FU when none available
system.cpu.iq.fu_full::SimdFloatMisc                0                       # attempts to use FU when none available
system.cpu.iq.fu_full::SimdFloatMult                0                       # attempts to use FU when none available
system.cpu.iq.fu_full::SimdFloatMultAcc             0                       # attempts to use FU when none available
system.cpu.iq.fu_full::SimdFloatSqrt                0                       # attempts to use FU when none available
system.cpu.iq.fu_full::SimdReduceAdd                0                       # attempts to use FU when none available
system.cpu.iq.fu_full::SimdReduceAlu                0                       # attempts to use FU when none available
system.cpu.iq.fu_full::SimdReduceCmp                0                       # attempts to use FU when none available
system.cpu.iq.fu_full::SimdFloatReduceAdd            0                       # attempts to use FU when none available
system.cpu.iq.fu_full::SimdFloatReduceCmp            0                       # attempts to use FU when none available
system.cpu.iq.fu_full::SimdAes                      0                       # attempts to use FU when none available
system.cpu.iq.fu_full::SimdAesMix                   0                       # attempts to use FU when none available
system.cpu.iq.fu_full::SimdSha1Hash                 0                       # attempts to use FU when none available
system.cpu.iq.fu_full::SimdSha1Hash2                0                       # attempts to use FU when none available
system.cpu.iq.fu_full::SimdSha256Hash               0                       # attempts to use FU when none available
system.cpu.iq.fu_full::SimdSha256Hash2              0                       # attempts to use FU when none available
system.cpu.iq.fu_full::SimdShaSigma2                0                       # attempts to use FU when none available
system.cpu.iq.fu_full::SimdShaSigma3                0                       # attempts to use FU when none available
system.cpu.iq.fu_full::SimdPredAlu                  0                       # attempts to use FU when none available
system.cpu.iq.fu_full::MemRead                      0                       # attempts to use FU when none available
system.cpu.iq.fu_full::MemWrite                     0                       # attempts to use FU when none available
system.cpu.iq.fu_full::FloatMemRead                 0                       # attempts to use FU when none available
system.cpu.iq.fu_full::FloatMemWrite                0                       # attempts to use FU when none available
system.cpu.iq.fu_full::IprAccess                    0                       # attempts to use FU when none available
system.cpu.iq.fu_full::InstPrefetch                 0                       # attempts to use FU when none available
system.cpu.iq.int_alu_accesses                4062521                       # Number of integer alu accesses
system.cpu.iq.int_inst_queue_reads           10771510                       # Number of integer instruction queue reads
system.cpu.iq.int_inst_queue_wakeup_accesses      4035373                       # Number of integer instruction queue wakeup accesses
system.cpu.iq.int_inst_queue_writes           5258736                       # Number of integer instruction queue writes
system.cpu.iq.iqInstsAdded                    4495802                       # Number of instructions added to the IQ (excludes non-spec)
system.cpu.iq.iqInstsIssued                   4177506                       # Number of instructions issued
system.cpu.iq.iqNonSpecInstsAdded                1075                       # Number of non-speculative instructions added to the IQ
system.cpu.iq.iqSquashedInstsExamined          889262                       # Number of squashed instructions iterated over during squash; mainly for profiling
system.cpu.iq.iqSquashedInstsIssued             18276                       # Number of squashed instructions issued
system.cpu.iq.iqSquashedNonSpecRemoved            343                       # Number of squashed non-spec instructions that were removed
system.cpu.iq.iqSquashedOperandsExamined      1320551                       # Number of squashed operands that are examined and possibly removed from graph
system.cpu.iq.issued_per_cycle::samples       2577289                       # Number of insts issued each cycle
system.cpu.iq.issued_per_cycle::mean         1.620892                       # Number of insts issued each cycle
system.cpu.iq.issued_per_cycle::stdev        1.668795                       # Number of insts issued each cycle
system.cpu.iq.issued_per_cycle::underflows            0      0.00%      0.00% # Number of insts issued each cycle
system.cpu.iq.issued_per_cycle::0             1164032     45.16%     45.16% # Number of insts issued each cycle
system.cpu.iq.issued_per_cycle::1              176683      6.86%     52.02% # Number of insts issued each cycle
system.cpu.iq.issued_per_cycle::2              302578     11.74%     63.76% # Number of insts issued each cycle
system.cpu.iq.issued_per_cycle::3              340317     13.20%     76.96% # Number of insts issued each cycle
system.cpu.iq.issued_per_cycle::4              593679     23.04%    100.00% # Number of insts issued each cycle
system.cpu.iq.issued_per_cycle::overflows            0      0.00%    100.00% # Number of insts issued each cycle
system.cpu.iq.issued_per_cycle::min_value            0                       # Number of insts issued each cycle
system.cpu.iq.issued_per_cycle::max_value            4                       # Number of insts issued each cycle
system.cpu.iq.issued_per_cycle::total         2577289                       # Number of insts issued each cycle
system.cpu.iq.rate                           1.532176                       # Inst issue rate
system.cpu.iq.vec_alu_accesses                      0                       # Number of vector alu accesses
system.cpu.iq.vec_inst_queue_reads                  0                       # Number of vector instruction queue reads
system.cpu.iq.vec_inst_queue_wakeup_accesses            0                       # Number of vector instruction queue wakeup accesses
system.cpu.iq.vec_inst_queue_writes                 0                       # Number of vector instruction queue writes
system.cpu.itb.rdAccesses                           0                       # TLB accesses on read requests
system.cpu.itb.rdMisses                             0                       # TLB misses on read requests
system.cpu.itb.wrAccesses                      241767                       # TLB accesses on write requests
system.cpu.itb.wrMisses                           339                       # TLB misses on write requests
system.cpu.memDep0.conflictingLoads             12644                       # Number of conflicting loads.
system.cpu.memDep0.conflictingStores             5192                       # Number of conflicting stores.
system.cpu.memDep0.insertedLoads               607913                       # Number of loads inserted to the mem dependence unit.
system.cpu.memDep0.insertedStores              202496                       # Number of stores inserted to the mem dependence unit.
system.cpu.misc_regfile_reads                 1558893                       # number of misc regfile reads
system.cpu.misc_regfile_writes                    675                       # number of misc regfile writes
system.cpu.numCycles                          2726519                       # number of cpu cycles simulated
system.cpu.numWorkItemsCompleted                    0                       # number of work items this cpu completed
system.cpu.numWorkItemsStarted                      0                       # number of work items this cpu started
system.cpu.process.numSyscalls                     56                       # Number of system calls
system.cpu.rename.BlockCycles                  832128                       # Number of cycles rename is blocking
system.cpu.rename.CommittedMaps               4957851                       # Number of HB maps that are committed
system.cpu.rename.FullRegisterEvents              256                       # Number of times there has been no free registers
system.cpu.rename.IQFullEvents                  48788                       # Number of times rename has blocked due to IQ full
system.cpu.rename.IdleCycles                   342933                       # Number of cycles rename is idle
system.cpu.rename.LQFullEvents                  25089                       # Number of times rename has blocked due to LQ full
system.cpu.rename.ROBFullEvents                  6209                       # Number of times rename has blocked due to ROB full
system.cpu.rename.RenameLookups              12113444                       # Number of register rename lookups that rename has made
system.cpu.rename.RenamedInsts                4639329                       # Number of instructions processed by rename
system.cpu.rename.RenamedOperands             6358735                       # Number of destination operands rename has renamed
system.cpu.rename.RunCycles                   1173517                       # Number of cycles rename is running
system.cpu.rename.SQFullEvents                  73145                       # Number of times rename has blocked due to SQ full
system.cpu.rename.SquashCycles                  24390                       # Number of cycles rename is squashing
system.cpu.rename.UnblockCycles                185121                       # Number of cycles rename is unblocking
system.cpu.rename.UndoneMaps                  1400861                       # Number of HB maps that are undone due to squashing
system.cpu.rename.fp_rename_lookups            150747                       # Number of floating rename lookups
system.cpu.rename.int_rename_lookups          7374449                       # Number of integer rename lookups
system.cpu.rename.serializeStallCycles          19200                       # count of cycles rename stalled for serializing inst
system.cpu.rename.serializingInsts                869                       # count of serializing insts renamed
system.cpu.rename.skidInsts                    212619                       # count of insts added to the skid buffer
system.cpu.rename.tempSerializingInsts            913                       # count of temporary serializing insts renamed
system.cpu.rob.rob_reads                      6233342                       # The number of ROB reads
system.cpu.rob.rob_writes                     9237210                       # The number of ROB writes
system.cpu.timesIdled                            1466                       # Number of times that the entire CPU went into an idle state and unscheduled itself
system.l2bus.snoop_filter.hit_multi_requests            8                       # Number of requests hitting in the snoop filter with multiple (>1) holders of the requested data.
system.l2bus.snoop_filter.hit_multi_snoops            0                       # Number of snoops hitting in the snoop filter with multiple (>1) holders of the requested data.
system.l2bus.snoop_filter.hit_single_requests        18140                       # Number of requests hitting in the snoop filter with a single holder of the requested data.
system.l2bus.snoop_filter.hit_single_snoops          413                       # Number of snoops hitting in the snoop filter with a single holder of the requested data.
system.l2bus.snoop_filter.tot_requests          37560                       # Total number of requests made to the snoop filter.
system.l2bus.snoop_filter.tot_snoops              413                       # Total number of snoops made to the snoop filter.
system.l2cache.prefetcher.num_hwpf_issued          794                       # number of hwpf issued
system.l2cache.prefetcher.pfBufferHit               0                       # number of redundant prefetches already in prefetch queue
system.l2cache.prefetcher.pfIdentified            794                       # number of prefetch candidates identified
system.l2cache.prefetcher.pfInCache                 0                       # number of redundant prefetches already in cache/mshr dropped
system.l2cache.prefetcher.pfRemovedFull             0                       # number of prefetches dropped due to prefetch queue size
system.l2cache.prefetcher.pfSpanPage              158                       # number of prefetches that crossed the page
system.membus.snoop_filter.hit_multi_requests            0                       # Number of requests hitting in the snoop filter with multiple (>1) holders of the requested data.
system.membus.snoop_filter.hit_multi_snoops            0                       # Number of snoops hitting in the snoop filter with multiple (>1) holders of the requested data.
system.membus.snoop_filter.hit_single_requests         9247                       # Number of requests hitting in the snoop filter with a single holder of the requested data.
system.membus.snoop_filter.hit_single_snoops            0                       # Number of snoops hitting in the snoop filter with a single holder of the requested data.
system.membus.snoop_filter.tot_requests         22614                       # Total number of requests made to the snoop filter.
system.membus.snoop_filter.tot_snoops               0                       # Total number of snoops made to the snoop filter.
system.membus.pwrStateResidencyTicks::UNDEFINED   1090607200                       # Cumulative time (in ticks) in various power states
system.membus.trans_dist::ReadResp              12011                       # Transaction distribution
system.membus.trans_dist::WritebackDirty         1340                       # Transaction distribution
system.membus.trans_dist::CleanEvict             7907                       # Transaction distribution
system.membus.trans_dist::ReadExReq              1356                       # Transaction distribution
system.membus.trans_dist::ReadExResp             1356                       # Transaction distribution
system.membus.trans_dist::ReadSharedReq         12011                       # Transaction distribution
system.membus.pkt_count_system.l2cache.mem_side::system.mem_ctrl.port        35981                       # Packet count per connected master and slave (bytes)
system.membus.pkt_count_system.l2cache.mem_side::total        35981                       # Packet count per connected master and slave (bytes)
system.membus.pkt_count::total                  35981                       # Packet count per connected master and slave (bytes)
system.membus.pkt_size_system.l2cache.mem_side::system.mem_ctrl.port       941248                       # Cumulative packet size per connected master and slave (bytes)
system.membus.pkt_size_system.l2cache.mem_side::total       941248                       # Cumulative packet size per connected master and slave (bytes)
system.membus.pkt_size::total                  941248                       # Cumulative packet size per connected master and slave (bytes)
system.membus.snoops                                0                       # Total snoops (count)
system.membus.snoopTraffic                          0                       # Total snoop traffic (bytes)
system.membus.snoop_fanout::samples             13367                       # Request fanout histogram
system.membus.snoop_fanout::mean                    0                       # Request fanout histogram
system.membus.snoop_fanout::stdev                   0                       # Request fanout histogram
system.membus.snoop_fanout::underflows              0      0.00%      0.00% # Request fanout histogram
system.membus.snoop_fanout::0                   13367    100.00%    100.00% # Request fanout histogram
system.membus.snoop_fanout::1                       0      0.00%    100.00% # Request fanout histogram
system.membus.snoop_fanout::overflows               0      0.00%    100.00% # Request fanout histogram
system.membus.snoop_fanout::min_value               0                       # Request fanout histogram
system.membus.snoop_fanout::max_value               0                       # Request fanout histogram
system.membus.snoop_fanout::total               13367                       # Request fanout histogram
system.membus.reqLayer2.occupancy            11219574                       # Layer occupancy (ticks)
system.membus.reqLayer2.utilization               1.0                       # Layer utilization (%)
system.membus.respLayer0.occupancy           29032926                       # Layer occupancy (ticks)
system.membus.respLayer0.utilization              2.7                       # Layer utilization (%)
system.l2bus.pwrStateResidencyTicks::UNDEFINED   1090607200                       # Cumulative time (in ticks) in various power states
system.l2bus.trans_dist::ReadResp               17329                       # Transaction distribution
system.l2bus.trans_dist::WritebackDirty          4111                       # Transaction distribution
system.l2bus.trans_dist::CleanEvict             23355                       # Transaction distribution
system.l2bus.trans_dist::HardPFReq               1105                       # Transaction distribution
system.l2bus.trans_dist::ReadExReq               2091                       # Transaction distribution
system.l2bus.trans_dist::ReadExResp              2091                       # Transaction distribution
system.l2bus.trans_dist::ReadSharedReq          17329                       # Transaction distribution
system.l2bus.pkt_count_system.cpu.icache.mem_side::system.l2cache.cpu_side         7545                       # Packet count per connected master and slave (bytes)
system.l2bus.pkt_count_system.cpu.dcache.mem_side::system.l2cache.cpu_side        49433                       # Packet count per connected master and slave (bytes)
system.l2bus.pkt_count::total                   56978                       # Packet count per connected master and slave (bytes)
system.l2bus.pkt_size_system.cpu.icache.mem_side::system.l2cache.cpu_side       166336                       # Cumulative packet size per connected master and slave (bytes)
system.l2bus.pkt_size_system.cpu.dcache.mem_side::system.l2cache.cpu_side      1253760                       # Cumulative packet size per connected master and slave (bytes)
system.l2bus.pkt_size::total                  1420096                       # Cumulative packet size per connected master and slave (bytes)
system.l2bus.snoops                             10433                       # Total snoops (count)
system.l2bus.snoopTraffic                       85888                       # Total snoop traffic (bytes)
system.l2bus.snoop_fanout::samples              29851                       # Request fanout histogram
system.l2bus.snoop_fanout::mean              0.014103                       # Request fanout histogram
system.l2bus.snoop_fanout::stdev             0.117919                       # Request fanout histogram
system.l2bus.snoop_fanout::underflows               0      0.00%      0.00% # Request fanout histogram
system.l2bus.snoop_fanout::0                    29430     98.59%     98.59% # Request fanout histogram
system.l2bus.snoop_fanout::1                      421      1.41%    100.00% # Request fanout histogram
system.l2bus.snoop_fanout::2                        0      0.00%    100.00% # Request fanout histogram
system.l2bus.snoop_fanout::overflows                0      0.00%    100.00% # Request fanout histogram
system.l2bus.snoop_fanout::min_value                0                       # Request fanout histogram
system.l2bus.snoop_fanout::max_value                1                       # Request fanout histogram
system.l2bus.snoop_fanout::total                29851                       # Request fanout histogram
system.l2bus.respLayer1.occupancy            20183199                       # Layer occupancy (ticks)
system.l2bus.respLayer1.utilization               1.9                       # Layer utilization (%)
system.l2bus.reqLayer0.occupancy             18632442                       # Layer occupancy (ticks)
system.l2bus.reqLayer0.utilization                1.7                       # Layer utilization (%)
system.l2bus.respLayer0.occupancy             3121998                       # Layer occupancy (ticks)
system.l2bus.respLayer0.utilization               0.3                       # Layer utilization (%)
system.clk_domain.clock                           400                       # Clock period in ticks
system.clk_domain.voltage_domain.voltage            1                       # Voltage in Volts
system.cpu.pwrStateResidencyTicks::ON      1090607200                       # Cumulative time (in ticks) in various power states
system.cpu.icache.pwrStateResidencyTicks::UNDEFINED   1090607200                       # Cumulative time (in ticks) in various power states
system.cpu.icache.demand_hits::.cpu.inst       238368                       # number of demand (read+write) hits
system.cpu.icache.demand_hits::total           238368                       # number of demand (read+write) hits
system.cpu.icache.overall_hits::.cpu.inst       238368                       # number of overall hits
system.cpu.icache.overall_hits::total          238368                       # number of overall hits
system.cpu.icache.demand_misses::.cpu.inst         3298                       # number of demand (read+write) misses
system.cpu.icache.demand_misses::total           3298                       # number of demand (read+write) misses
system.cpu.icache.overall_misses::.cpu.inst         3298                       # number of overall misses
system.cpu.icache.overall_misses::total          3298                       # number of overall misses
system.cpu.icache.demand_miss_latency::.cpu.inst    168391200                       # number of demand (read+write) miss cycles
system.cpu.icache.demand_miss_latency::total    168391200                       # number of demand (read+write) miss cycles
system.cpu.icache.overall_miss_latency::.cpu.inst    168391200                       # number of overall miss cycles
system.cpu.icache.overall_miss_latency::total    168391200                       # number of overall miss cycles
system.cpu.icache.demand_accesses::.cpu.inst       241666                       # number of demand (read+write) accesses
system.cpu.icache.demand_accesses::total       241666                       # number of demand (read+write) accesses
system.cpu.icache.overall_accesses::.cpu.inst       241666                       # number of overall (read+write) accesses
system.cpu.icache.overall_accesses::total       241666                       # number of overall (read+write) accesses
system.cpu.icache.demand_miss_rate::.cpu.inst     0.013647                       # miss rate for demand accesses
system.cpu.icache.demand_miss_rate::total     0.013647                       # miss rate for demand accesses
system.cpu.icache.overall_miss_rate::.cpu.inst     0.013647                       # miss rate for overall accesses
system.cpu.icache.overall_miss_rate::total     0.013647                       # miss rate for overall accesses
system.cpu.icache.demand_avg_miss_latency::.cpu.inst 51058.580958                       # average overall miss latency
system.cpu.icache.demand_avg_miss_latency::total 51058.580958                       # average overall miss latency
system.cpu.icache.overall_avg_miss_latency::.cpu.inst 51058.580958                       # average overall miss latency
system.cpu.icache.overall_avg_miss_latency::total 51058.580958                       # average overall miss latency
system.cpu.icache.blocked_cycles::no_mshrs           53                       # number of cycles access was blocked
system.cpu.icache.blocked_cycles::no_targets            0                       # number of cycles access was blocked
system.cpu.icache.blocked::no_mshrs                 3                       # number of cycles access was blocked
system.cpu.icache.blocked::no_targets               0                       # number of cycles access was blocked
system.cpu.icache.avg_blocked_cycles::no_mshrs    17.666667                       # average number of cycles each access was blocked
system.cpu.icache.avg_blocked_cycles::no_targets          nan                       # average number of cycles each access was blocked
system.cpu.icache.demand_mshr_hits::.cpu.inst          697                       # number of demand (read+write) MSHR hits
system.cpu.icache.demand_mshr_hits::total          697                       # number of demand (read+write) MSHR hits
system.cpu.icache.overall_mshr_hits::.cpu.inst          697                       # number of overall MSHR hits
system.cpu.icache.overall_mshr_hits::total          697                       # number of overall MSHR hits
system.cpu.icache.demand_mshr_misses::.cpu.inst         2601                       # number of demand (read+write) MSHR misses
system.cpu.icache.demand_mshr_misses::total         2601                       # number of demand (read+write) MSHR misses
system.cpu.icache.overall_mshr_misses::.cpu.inst         2601                       # number of overall MSHR misses
system.cpu.icache.overall_mshr_misses::total         2601                       # number of overall MSHR misses
system.cpu.icache.demand_mshr_miss_latency::.cpu.inst    133355200                       # number of demand (read+write) MSHR miss cycles
system.cpu.icache.demand_mshr_miss_latency::total    133355200                       # number of demand (read+write) MSHR miss cycles
system.cpu.icache.overall_mshr_miss_latency::.cpu.inst    133355200                       # number of overall MSHR miss cycles
system.cpu.icache.overall_mshr_miss_latency::total    133355200                       # number of overall MSHR miss cycles
system.cpu.icache.demand_mshr_miss_rate::.cpu.inst     0.010763                       # mshr miss rate for demand accesses
system.cpu.icache.demand_mshr_miss_rate::total     0.010763                       # mshr miss rate for demand accesses
system.cpu.icache.overall_mshr_miss_rate::.cpu.inst     0.010763                       # mshr miss rate for overall accesses
system.cpu.icache.overall_mshr_miss_rate::total     0.010763                       # mshr miss rate for overall accesses
system.cpu.icache.demand_avg_mshr_miss_latency::.cpu.inst 51270.742022                       # average overall mshr miss latency
system.cpu.icache.demand_avg_mshr_miss_latency::total 51270.742022                       # average overall mshr miss latency
system.cpu.icache.overall_avg_mshr_miss_latency::.cpu.inst 51270.742022                       # average overall mshr miss latency
system.cpu.icache.overall_avg_mshr_miss_latency::total 51270.742022                       # average overall mshr miss latency
system.cpu.icache.replacements                   2345                       # number of replacements
system.cpu.icache.ReadReq_hits::.cpu.inst       238368                       # number of ReadReq hits
system.cpu.icache.ReadReq_hits::total          238368                       # number of ReadReq hits
system.cpu.icache.ReadReq_misses::.cpu.inst         3298                       # number of ReadReq misses
system.cpu.icache.ReadReq_misses::total          3298                       # number of ReadReq misses
system.cpu.icache.ReadReq_miss_latency::.cpu.inst    168391200                       # number of ReadReq miss cycles
system.cpu.icache.ReadReq_miss_latency::total    168391200                       # number of ReadReq miss cycles
system.cpu.icache.ReadReq_accesses::.cpu.inst       241666                       # number of ReadReq accesses(hits+misses)
system.cpu.icache.ReadReq_accesses::total       241666                       # number of ReadReq accesses(hits+misses)
system.cpu.icache.ReadReq_miss_rate::.cpu.inst     0.013647                       # miss rate for ReadReq accesses
system.cpu.icache.ReadReq_miss_rate::total     0.013647                       # miss rate for ReadReq accesses
system.cpu.icache.ReadReq_avg_miss_latency::.cpu.inst 51058.580958                       # average ReadReq miss latency
system.cpu.icache.ReadReq_avg_miss_latency::total 51058.580958                       # average ReadReq miss latency
system.cpu.icache.ReadReq_mshr_hits::.cpu.inst          697                       # number of ReadReq MSHR hits
system.cpu.icache.ReadReq_mshr_hits::total          697                       # number of ReadReq MSHR hits
system.cpu.icache.ReadReq_mshr_misses::.cpu.inst         2601                       # number of ReadReq MSHR misses
system.cpu.icache.ReadReq_mshr_misses::total         2601                       # number of ReadReq MSHR misses
system.cpu.icache.ReadReq_mshr_miss_latency::.cpu.inst    133355200                       # number of ReadReq MSHR miss cycles
system.cpu.icache.ReadReq_mshr_miss_latency::total    133355200                       # number of ReadReq MSHR miss cycles
system.cpu.icache.ReadReq_mshr_miss_rate::.cpu.inst     0.010763                       # mshr miss rate for ReadReq accesses
system.cpu.icache.ReadReq_mshr_miss_rate::total     0.010763                       # mshr miss rate for ReadReq accesses
system.cpu.icache.ReadReq_avg_mshr_miss_latency::.cpu.inst 51270.742022                       # average ReadReq mshr miss latency
system.cpu.icache.ReadReq_avg_mshr_miss_latency::total 51270.742022                       # average ReadReq mshr miss latency
system.cpu.icache.prefetcher.pwrStateResidencyTicks::UNDEFINED   1090607200                       # Cumulative time (in ticks) in various power states
system.cpu.icache.tags.pwrStateResidencyTicks::UNDEFINED   1090607200                       # Cumulative time (in ticks) in various power states
system.cpu.icache.tags.tagsinuse           253.475876                       # Cycle average of tags in use
system.cpu.icache.tags.total_refs              206548                       # Total number of references to valid blocks.
system.cpu.icache.tags.sampled_refs              2345                       # Sample count of references to valid blocks.
system.cpu.icache.tags.avg_refs             88.080171                       # Average number of references to valid blocks.
system.cpu.icache.tags.warmup_cycle             66400                       # Cycle when the warmup percentage was hit.
system.cpu.icache.tags.occ_blocks::.cpu.inst   253.475876                       # Average occupied blocks per requestor
system.cpu.icache.tags.occ_percent::.cpu.inst     0.990140                       # Average percentage of cache occupancy
system.cpu.icache.tags.occ_percent::total     0.990140                       # Average percentage of cache occupancy
system.cpu.icache.tags.occ_task_id_blocks::1024          256                       # Occupied blocks per task id
system.cpu.icache.tags.age_task_id_blocks_1024::0           70                       # Occupied blocks per task id
system.cpu.icache.tags.age_task_id_blocks_1024::1          156                       # Occupied blocks per task id
system.cpu.icache.tags.age_task_id_blocks_1024::2           24                       # Occupied blocks per task id
system.cpu.icache.tags.age_task_id_blocks_1024::3            6                       # Occupied blocks per task id
system.cpu.icache.tags.occ_task_id_percent::1024            1                       # Percentage of cache occupancy per task id
system.cpu.icache.tags.tag_accesses            485933                       # Number of tag accesses
system.cpu.icache.tags.data_accesses           485933                       # Number of data accesses
system.cpu.dtb.walker.pwrStateResidencyTicks::UNDEFINED   1090607200                       # Cumulative time (in ticks) in various power states
system.cpu.interrupts.clk_domain.clock           6400                       # Clock period in ticks
system.cpu.itb.walker.pwrStateResidencyTicks::UNDEFINED   1090607200                       # Cumulative time (in ticks) in various power states
system.cpu.dcache.pwrStateResidencyTicks::UNDEFINED   1090607200                       # Cumulative time (in ticks) in various power states
system.cpu.dcache.demand_hits::.cpu.data       670343                       # number of demand (read+write) hits
system.cpu.dcache.demand_hits::total           670343                       # number of demand (read+write) hits
system.cpu.dcache.overall_hits::.cpu.data       670343                       # number of overall hits
system.cpu.dcache.overall_hits::total          670343                       # number of overall hits
system.cpu.dcache.demand_misses::.cpu.data        34780                       # number of demand (read+write) misses
system.cpu.dcache.demand_misses::total          34780                       # number of demand (read+write) misses
system.cpu.dcache.overall_misses::.cpu.data        34780                       # number of overall misses
system.cpu.dcache.overall_misses::total         34780                       # number of overall misses
system.cpu.dcache.demand_miss_latency::.cpu.data   1685597999                       # number of demand (read+write) miss cycles
system.cpu.dcache.demand_miss_latency::total   1685597999                       # number of demand (read+write) miss cycles
system.cpu.dcache.overall_miss_latency::.cpu.data   1685597999                       # number of overall miss cycles
system.cpu.dcache.overall_miss_latency::total   1685597999                       # number of overall miss cycles
system.cpu.dcache.demand_accesses::.cpu.data       705123                       # number of demand (read+write) accesses
system.cpu.dcache.demand_accesses::total       705123                       # number of demand (read+write) accesses
system.cpu.dcache.overall_accesses::.cpu.data       705123                       # number of overall (read+write) accesses
system.cpu.dcache.overall_accesses::total       705123                       # number of overall (read+write) accesses
system.cpu.dcache.demand_miss_rate::.cpu.data     0.049325                       # miss rate for demand accesses
system.cpu.dcache.demand_miss_rate::total     0.049325                       # miss rate for demand accesses
system.cpu.dcache.overall_miss_rate::.cpu.data     0.049325                       # miss rate for overall accesses
system.cpu.dcache.overall_miss_rate::total     0.049325                       # miss rate for overall accesses
system.cpu.dcache.demand_avg_miss_latency::.cpu.data 48464.577315                       # average overall miss latency
system.cpu.dcache.demand_avg_miss_latency::total 48464.577315                       # average overall miss latency
system.cpu.dcache.overall_avg_miss_latency::.cpu.data 48464.577315                       # average overall miss latency
system.cpu.dcache.overall_avg_miss_latency::total 48464.577315                       # average overall miss latency
system.cpu.dcache.blocked_cycles::no_mshrs        27536                       # number of cycles access was blocked
system.cpu.dcache.blocked_cycles::no_targets          138                       # number of cycles access was blocked
system.cpu.dcache.blocked::no_mshrs               745                       # number of cycles access was blocked
system.cpu.dcache.blocked::no_targets               1                       # number of cycles access was blocked
system.cpu.dcache.avg_blocked_cycles::no_mshrs    36.961074                       # average number of cycles each access was blocked
system.cpu.dcache.avg_blocked_cycles::no_targets          138                       # average number of cycles each access was blocked
system.cpu.dcache.unused_prefetches              1747                       # number of HardPF blocks evicted w/o reference
system.cpu.dcache.writebacks::.writebacks         2771                       # number of writebacks
system.cpu.dcache.writebacks::total              2771                       # number of writebacks
system.cpu.dcache.demand_mshr_hits::.cpu.data        22203                       # number of demand (read+write) MSHR hits
system.cpu.dcache.demand_mshr_hits::total        22203                       # number of demand (read+write) MSHR hits
system.cpu.dcache.overall_mshr_hits::.cpu.data        22203                       # number of overall MSHR hits
system.cpu.dcache.overall_mshr_hits::total        22203                       # number of overall MSHR hits
system.cpu.dcache.demand_mshr_misses::.cpu.data        12577                       # number of demand (read+write) MSHR misses
system.cpu.dcache.demand_mshr_misses::total        12577                       # number of demand (read+write) MSHR misses
system.cpu.dcache.overall_mshr_misses::.cpu.data        12577                       # number of overall MSHR misses
system.cpu.dcache.overall_mshr_misses::.cpu.dcache.prefetcher         4242                       # number of overall MSHR misses
system.cpu.dcache.overall_mshr_misses::total        16819                       # number of overall MSHR misses
system.cpu.dcache.demand_mshr_miss_latency::.cpu.data    576967599                       # number of demand (read+write) MSHR miss cycles
system.cpu.dcache.demand_mshr_miss_latency::total    576967599                       # number of demand (read+write) MSHR miss cycles
system.cpu.dcache.overall_mshr_miss_latency::.cpu.data    576967599                       # number of overall MSHR miss cycles
system.cpu.dcache.overall_mshr_miss_latency::.cpu.dcache.prefetcher    241731519                       # number of overall MSHR miss cycles
system.cpu.dcache.overall_mshr_miss_latency::total    818699118                       # number of overall MSHR miss cycles
system.cpu.dcache.demand_mshr_miss_rate::.cpu.data     0.017837                       # mshr miss rate for demand accesses
system.cpu.dcache.demand_mshr_miss_rate::total     0.017837                       # mshr miss rate for demand accesses
system.cpu.dcache.overall_mshr_miss_rate::.cpu.data     0.017837                       # mshr miss rate for overall accesses
system.cpu.dcache.overall_mshr_miss_rate::.cpu.dcache.prefetcher          inf                       # mshr miss rate for overall accesses
system.cpu.dcache.overall_mshr_miss_rate::total     0.023853                       # mshr miss rate for overall accesses
system.cpu.dcache.demand_avg_mshr_miss_latency::.cpu.data 45874.819035                       # average overall mshr miss latency
system.cpu.dcache.demand_avg_mshr_miss_latency::total 45874.819035                       # average overall mshr miss latency
system.cpu.dcache.overall_avg_mshr_miss_latency::.cpu.data 45874.819035                       # average overall mshr miss latency
system.cpu.dcache.overall_avg_mshr_miss_latency::.cpu.dcache.prefetcher 56985.270863                       # average overall mshr miss latency
system.cpu.dcache.overall_avg_mshr_miss_latency::total 48677.038944                       # average overall mshr miss latency
system.cpu.dcache.replacements                  15795                       # number of replacements
system.cpu.dcache.ReadReq_hits::.cpu.data       500717                       # number of ReadReq hits
system.cpu.dcache.ReadReq_hits::total          500717                       # number of ReadReq hits
system.cpu.dcache.ReadReq_misses::.cpu.data        32654                       # number of ReadReq misses
system.cpu.dcache.ReadReq_misses::total         32654                       # number of ReadReq misses
system.cpu.dcache.ReadReq_miss_latency::.cpu.data   1580044000                       # number of ReadReq miss cycles
system.cpu.dcache.ReadReq_miss_latency::total   1580044000                       # number of ReadReq miss cycles
system.cpu.dcache.ReadReq_accesses::.cpu.data       533371                       # number of ReadReq accesses(hits+misses)
system.cpu.dcache.ReadReq_accesses::total       533371                       # number of ReadReq accesses(hits+misses)
system.cpu.dcache.ReadReq_miss_rate::.cpu.data     0.061222                       # miss rate for ReadReq accesses
system.cpu.dcache.ReadReq_miss_rate::total     0.061222                       # miss rate for ReadReq accesses
system.cpu.dcache.ReadReq_avg_miss_latency::.cpu.data 48387.456361                       # average ReadReq miss latency
system.cpu.dcache.ReadReq_avg_miss_latency::total 48387.456361                       # average ReadReq miss latency
system.cpu.dcache.ReadReq_mshr_hits::.cpu.data        22168                       # number of ReadReq MSHR hits
system.cpu.dcache.ReadReq_mshr_hits::total        22168                       # number of ReadReq MSHR hits
system.cpu.dcache.ReadReq_mshr_misses::.cpu.data        10486                       # number of ReadReq MSHR misses
system.cpu.dcache.ReadReq_mshr_misses::total        10486                       # number of ReadReq MSHR misses
system.cpu.dcache.ReadReq_mshr_miss_latency::.cpu.data    474405200                       # number of ReadReq MSHR miss cycles
system.cpu.dcache.ReadReq_mshr_miss_latency::total    474405200                       # number of ReadReq MSHR miss cycles
system.cpu.dcache.ReadReq_mshr_miss_rate::.cpu.data     0.019660                       # mshr miss rate for ReadReq accesses
system.cpu.dcache.ReadReq_mshr_miss_rate::total     0.019660                       # mshr miss rate for ReadReq accesses
system.cpu.dcache.ReadReq_avg_mshr_miss_latency::.cpu.data 45241.769979                       # average ReadReq mshr miss latency
system.cpu.dcache.ReadReq_avg_mshr_miss_latency::total 45241.769979                       # average ReadReq mshr miss latency
system.cpu.dcache.WriteReq_hits::.cpu.data       169626                       # number of WriteReq hits
system.cpu.dcache.WriteReq_hits::total         169626                       # number of WriteReq hits
system.cpu.dcache.WriteReq_misses::.cpu.data         2126                       # number of WriteReq misses
system.cpu.dcache.WriteReq_misses::total         2126                       # number of WriteReq misses
system.cpu.dcache.WriteReq_miss_latency::.cpu.data    105553999                       # number of WriteReq miss cycles
system.cpu.dcache.WriteReq_miss_latency::total    105553999                       # number of WriteReq miss cycles
system.cpu.dcache.WriteReq_accesses::.cpu.data       171752                       # number of WriteReq accesses(hits+misses)
system.cpu.dcache.WriteReq_accesses::total       171752                       # number of WriteReq accesses(hits+misses)
system.cpu.dcache.WriteReq_miss_rate::.cpu.data     0.012378                       # miss rate for WriteReq accesses
system.cpu.dcache.WriteReq_miss_rate::total     0.012378                       # miss rate for WriteReq accesses
system.cpu.dcache.WriteReq_avg_miss_latency::.cpu.data 49649.105833                       # average WriteReq miss latency
system.cpu.dcache.WriteReq_avg_miss_latency::total 49649.105833                       # average WriteReq miss latency
system.cpu.dcache.WriteReq_mshr_hits::.cpu.data           35                       # number of WriteReq MSHR hits
system.cpu.dcache.WriteReq_mshr_hits::total           35                       # number of WriteReq MSHR hits
system.cpu.dcache.WriteReq_mshr_misses::.cpu.data         2091                       # number of WriteReq MSHR misses
system.cpu.dcache.WriteReq_mshr_misses::total         2091                       # number of WriteReq MSHR misses
system.cpu.dcache.WriteReq_mshr_miss_latency::.cpu.data    102562399                       # number of WriteReq MSHR miss cycles
[...]
system.l2cache.overall_mshr_miss_rate::.cpu.data     0.560102                       # mshr miss rate for overall accesses
system.l2cache.overall_mshr_miss_rate::.cpu.dcache.prefetcher     0.833333                       # mshr miss rate for overall accesses
system.l2cache.overall_mshr_miss_rate::.l2cache.prefetcher          inf                       # mshr miss rate for overall accesses
system.l2cache.overall_mshr_miss_rate::total     0.165494                       # mshr miss rate for overall accesses
system.l2cache.demand_avg_mshr_miss_latency::.cpu.inst 59477.530864                       # average overall mshr miss latency
system.l2cache.demand_avg_mshr_miss_latency::.cpu.data 60580.821918                       # average overall mshr miss latency
system.l2cache.demand_avg_mshr_miss_latency::.cpu.dcache.prefetcher 59577.072727                       # average overall mshr miss latency
system.l2cache.demand_avg_mshr_miss_latency::total 59841.441826                       # average overall mshr miss latency
system.l2cache.overall_avg_mshr_miss_latency::.cpu.inst 59477.530864                       # average overall mshr miss latency
system.l2cache.overall_avg_mshr_miss_latency::.cpu.data 60580.821918                       # average overall mshr miss latency
system.l2cache.overall_avg_mshr_miss_latency::.cpu.dcache.prefetcher 59577.072727                       # average overall mshr miss latency
system.l2cache.overall_avg_mshr_miss_latency::.l2cache.prefetcher        59332                       # average overall mshr miss latency
system.l2cache.overall_avg_mshr_miss_latency::total 59839.200880                       # average overall mshr miss latency
system.l2cache.replacements                       691                       # number of replacements
system.l2cache.WritebackDirty_hits::.writebacks          125                       # number of WritebackDirty hits
system.l2cache.WritebackDirty_hits::total          125                       # number of WritebackDirty hits
system.l2cache.WritebackDirty_accesses::.writebacks          125                       # number of WritebackDirty accesses(hits+misses)
system.l2cache.WritebackDirty_accesses::total          125                       # number of WritebackDirty accesses(hits+misses)
system.l2cache.CleanEvict_mshr_misses::.writebacks           24                       # number of CleanEvict MSHR misses
system.l2cache.CleanEvict_mshr_misses::total           24                       # number of CleanEvict MSHR misses
system.l2cache.CleanEvict_mshr_miss_rate::.writebacks          inf                       # mshr miss rate for CleanEvict accesses
system.l2cache.CleanEvict_mshr_miss_rate::total          inf                       # mshr miss rate for CleanEvict accesses
system.l2cache.HardPFReq_mshr_misses::.l2cache.prefetcher            3                       # number of HardPFReq MSHR misses
system.l2cache.HardPFReq_mshr_misses::total            3                       # number of HardPFReq MSHR misses
system.l2cache.HardPFReq_mshr_miss_latency::.l2cache.prefetcher       177996                       # number of HardPFReq MSHR miss cycles
system.l2cache.HardPFReq_mshr_miss_latency::total       177996                       # number of HardPFReq MSHR miss cycles
system.l2cache.HardPFReq_mshr_miss_rate::.l2cache.prefetcher          inf                       # mshr miss rate for HardPFReq accesses
system.l2cache.HardPFReq_mshr_miss_rate::total          inf                       # mshr miss rate for HardPFReq accesses
system.l2cache.HardPFReq_avg_mshr_miss_latency::.l2cache.prefetcher        59332                       # average HardPFReq mshr miss latency
system.l2cache.HardPFReq_avg_mshr_miss_latency::total        59332                       # average HardPFReq mshr miss latency
system.l2cache.UpgradeReq_hits::.cpu.data            1                       # number of UpgradeReq hits
system.l2cache.UpgradeReq_hits::total               1                       # number of UpgradeReq hits
system.l2cache.UpgradeReq_accesses::.cpu.data            1                       # number of UpgradeReq accesses(hits+misses)
system.l2cache.UpgradeReq_accesses::total            1                       # number of UpgradeReq accesses(hits+misses)
system.l2cache.ReadExReq_hits::.cpu.data            9                       # number of ReadExReq hits
system.l2cache.ReadExReq_hits::total                9                       # number of ReadExReq hits
system.l2cache.ReadExReq_misses::.cpu.data           56                       # number of ReadExReq misses
system.l2cache.ReadExReq_misses::total             56                       # number of ReadExReq misses
system.l2cache.ReadExReq_miss_latency::.cpu.data      3834400                       # number of ReadExReq miss cycles
system.l2cache.ReadExReq_miss_latency::total      3834400                       # number of ReadExReq miss cycles
system.l2cache.ReadExReq_accesses::.cpu.data           65                       # number of ReadExReq accesses(hits+misses)
system.l2cache.ReadExReq_accesses::total           65                       # number of ReadExReq accesses(hits+misses)
system.l2cache.ReadExReq_miss_rate::.cpu.data     0.861538                       # miss rate for ReadExReq accesses
system.l2cache.ReadExReq_miss_rate::total     0.861538                       # miss rate for ReadExReq accesses
system.l2cache.ReadExReq_avg_miss_latency::.cpu.data 68471.428571                       # average ReadExReq miss latency
system.l2cache.ReadExReq_avg_miss_latency::total 68471.428571                       # average ReadExReq miss latency
system.l2cache.ReadExReq_mshr_misses::.cpu.data           56                       # number of ReadExReq MSHR misses
system.l2cache.ReadExReq_mshr_misses::total           56                       # number of ReadExReq MSHR misses
system.l2cache.ReadExReq_mshr_miss_latency::.cpu.data      3386400                       # number of ReadExReq MSHR miss cycles
system.l2cache.ReadExReq_mshr_miss_latency::total      3386400                       # number of ReadExReq MSHR miss cycles
system.l2cache.ReadExReq_mshr_miss_rate::.cpu.data     0.861538                       # mshr miss rate for ReadExReq accesses
system.l2cache.ReadExReq_mshr_miss_rate::total     0.861538                       # mshr miss rate for ReadExReq accesses
system.l2cache.ReadExReq_avg_mshr_miss_latency::.cpu.data 60471.428571                       # average ReadExReq mshr miss latency
system.l2cache.ReadExReq_avg_mshr_miss_latency::total 60471.428571                       # average ReadExReq mshr miss latency
system.l2cache.ReadSharedReq_hits::.cpu.inst         3259                       # number of ReadSharedReq hits
system.l2cache.ReadSharedReq_hits::.cpu.data          162                       # number of ReadSharedReq hits
system.l2cache.ReadSharedReq_hits::.cpu.dcache.prefetcher           11                       # number of ReadSharedReq hits
system.l2cache.ReadSharedReq_hits::total         3432                       # number of ReadSharedReq hits
system.l2cache.ReadSharedReq_misses::.cpu.inst          405                       # number of ReadSharedReq misses
system.l2cache.ReadSharedReq_misses::.cpu.data          164                       # number of ReadSharedReq misses
system.l2cache.ReadSharedReq_misses::.cpu.dcache.prefetcher           55                       # number of ReadSharedReq misses
system.l2cache.ReadSharedReq_misses::total          624                       # number of ReadSharedReq misses
system.l2cache.ReadSharedReq_miss_latency::.cpu.inst     27320400                       # number of ReadSharedReq miss cycles
system.l2cache.ReadSharedReq_miss_latency::.cpu.data     11241200                       # number of ReadSharedReq miss cycles
system.l2cache.ReadSharedReq_miss_latency::.cpu.dcache.prefetcher      3716739                       # number of ReadSharedReq miss cycles
system.l2cache.ReadSharedReq_miss_latency::total     42278339                       # number of ReadSharedReq miss cycles
system.l2cache.ReadSharedReq_accesses::.cpu.inst         3664                       # number of ReadSharedReq accesses(hits+misses)
system.l2cache.ReadSharedReq_accesses::.cpu.data          326                       # number of ReadSharedReq accesses(hits+misses)
system.l2cache.ReadSharedReq_accesses::.cpu.dcache.prefetcher           66                       # number of ReadSharedReq accesses(hits+misses)
system.l2cache.ReadSharedReq_accesses::total         4056                       # number of ReadSharedReq accesses(hits+misses)
system.l2cache.ReadSharedReq_miss_rate::.cpu.inst     0.110535                       # miss rate for ReadSharedReq accesses
system.l2cache.ReadSharedReq_miss_rate::.cpu.data     0.503067                       # miss rate for ReadSharedReq accesses
system.l2cache.ReadSharedReq_miss_rate::.cpu.dcache.prefetcher     0.833333                       # miss rate for ReadSharedReq accesses
system.l2cache.ReadSharedReq_miss_rate::total     0.153846                       # miss rate for ReadSharedReq accesses
system.l2cache.ReadSharedReq_avg_miss_latency::.cpu.inst 67457.777778                       # average ReadSharedReq miss latency
system.l2cache.ReadSharedReq_avg_miss_latency::.cpu.data 68543.902439                       # average ReadSharedReq miss latency
system.l2cache.ReadSharedReq_avg_miss_latency::.cpu.dcache.prefetcher 67577.072727                       # average ReadSharedReq miss latency
system.l2cache.ReadSharedReq_avg_miss_latency::total 67753.748397                       # average ReadSharedReq miss latency
system.l2cache.ReadSharedReq_mshr_hits::.cpu.data            1                       # number of ReadSharedReq MSHR hits
system.l2cache.ReadSharedReq_mshr_hits::total            1                       # number of ReadSharedReq MSHR hits
system.l2cache.ReadSharedReq_mshr_misses::.cpu.inst          405                       # number of ReadSharedReq MSHR misses
system.l2cache.ReadSharedReq_mshr_misses::.cpu.data          163                       # number of ReadSharedReq MSHR misses
system.l2cache.ReadSharedReq_mshr_misses::.cpu.dcache.prefetcher           55                       # number of ReadSharedReq MSHR misses
system.l2cache.ReadSharedReq_mshr_misses::total          623                       # number of ReadSharedReq MSHR misses
system.l2cache.ReadSharedReq_mshr_miss_latency::.cpu.inst     24088400                       # number of ReadSharedReq MSHR miss cycles
system.l2cache.ReadSharedReq_mshr_miss_latency::.cpu.data      9880800                       # number of ReadSharedReq MSHR miss cycles
system.l2cache.ReadSharedReq_mshr_miss_latency::.cpu.dcache.prefetcher      3276739                       # number of ReadSharedReq MSHR miss cycles
system.l2cache.ReadSharedReq_mshr_miss_latency::total     37245939                       # number of ReadSharedReq MSHR miss cycles
system.l2cache.ReadSharedReq_mshr_miss_rate::.cpu.inst     0.110535                       # mshr miss rate for ReadSharedReq accesses
system.l2cache.ReadSharedReq_mshr_miss_rate::.cpu.data     0.500000                       # mshr miss rate for ReadSharedReq accesses
system.l2cache.ReadSharedReq_mshr_miss_rate::.cpu.dcache.prefetcher     0.833333                       # mshr miss rate for ReadSharedReq accesses
system.l2cache.ReadSharedReq_mshr_miss_rate::total     0.153600                       # mshr miss rate for ReadSharedReq accesses
system.l2cache.ReadSharedReq_avg_mshr_miss_latency::.cpu.inst 59477.530864                       # average ReadSharedReq mshr miss latency
system.l2cache.ReadSharedReq_avg_mshr_miss_latency::.cpu.data 60618.404908                       # average ReadSharedReq mshr miss latency
system.l2cache.ReadSharedReq_avg_mshr_miss_latency::.cpu.dcache.prefetcher 59577.072727                       # average ReadSharedReq mshr miss latency
system.l2cache.ReadSharedReq_avg_mshr_miss_latency::total 59784.813804                       # average ReadSharedReq mshr miss latency
system.l2cache.prefetcher.pwrStateResidencyTicks::UNDEFINED    230367200                       # Cumulative time (in ticks) in various power states
system.l2cache.tags.pwrStateResidencyTicks::UNDEFINED    230367200                       # Cumulative time (in ticks) in various power states
system.l2cache.tags.tagsinuse                    4096                       # Cycle average of tags in use
system.l2cache.tags.total_refs                  20742                       # Total number of references to valid blocks.
system.l2cache.tags.sampled_refs                 4787                       # Sample count of references to valid blocks.
system.l2cache.tags.avg_refs                 4.332985                       # Average number of references to valid blocks.
system.l2cache.tags.warmup_cycle                    0                       # Cycle when the warmup percentage was hit.
system.l2cache.tags.occ_blocks::.writebacks    37.909319                       # Average occupied blocks per requestor
system.l2cache.tags.occ_blocks::.cpu.inst  1117.309642                       # Average occupied blocks per requestor
system.l2cache.tags.occ_blocks::.cpu.data  1853.391064                       # Average occupied blocks per requestor
system.l2cache.tags.occ_blocks::.cpu.dcache.prefetcher   917.449034                       # Average occupied blocks per requestor
system.l2cache.tags.occ_blocks::.l2cache.prefetcher   169.940941                       # Average occupied blocks per requestor
system.l2cache.tags.occ_percent::.writebacks     0.009255                       # Average percentage of cache occupancy
system.l2cache.tags.occ_percent::.cpu.inst     0.272781                       # Average percentage of cache occupancy
system.l2cache.tags.occ_percent::.cpu.data     0.452488                       # Average percentage of cache occupancy
system.l2cache.tags.occ_percent::.cpu.dcache.prefetcher     0.223987                       # Average percentage of cache occupancy
system.l2cache.tags.occ_percent::.l2cache.prefetcher     0.041489                       # Average percentage of cache occupancy
system.l2cache.tags.occ_percent::total       1.000000                       # Average percentage of cache occupancy
system.l2cache.tags.occ_task_id_blocks::1022         1012                       # Occupied blocks per task id
system.l2cache.tags.occ_task_id_blocks::1024         3084                       # Occupied blocks per task id
system.l2cache.tags.age_task_id_blocks_1022::0            8                       # Occupied blocks per task id
system.l2cache.tags.age_task_id_blocks_1022::1            2                       # Occupied blocks per task id
system.l2cache.tags.age_task_id_blocks_1022::2          150                       # Occupied blocks per task id
system.l2cache.tags.age_task_id_blocks_1022::3          852                       # Occupied blocks per task id
system.l2cache.tags.age_task_id_blocks_1024::0          174                       # Occupied blocks per task id
system.l2cache.tags.age_task_id_blocks_1024::1           60                       # Occupied blocks per task id
system.l2cache.tags.age_task_id_blocks_1024::2          921                       # Occupied blocks per task id
system.l2cache.tags.age_task_id_blocks_1024::3         1929                       # Occupied blocks per task id
system.l2cache.tags.occ_task_id_percent::1022     0.247070                       # Percentage of cache occupancy per task id
system.l2cache.tags.occ_task_id_percent::1024     0.752930                       # Percentage of cache occupancy per task id
system.l2cache.tags.tag_accesses                66603                       # Number of tag accesses
system.l2cache.tags.data_accesses               66603                       # Number of data accesses
system.mem_ctrl.pwrStateResidencyTicks::UNDEFINED    230367200                       # Cumulative time (in ticks) in various power states
system.mem_ctrl.bytes_read::.cpu.inst           25856                       # Number of bytes read from this memory
system.mem_ctrl.bytes_read::.cpu.data           14016                       # Number of bytes read from this memory
system.mem_ctrl.bytes_read::.cpu.dcache.prefetcher         3520                       # Number of bytes read from this memory
system.mem_ctrl.bytes_read::.l2cache.prefetcher          192                       # Number of bytes read from this memory
system.mem_ctrl.bytes_read::total               43584                       # Number of bytes read from this memory
system.mem_ctrl.bytes_inst_read::.cpu.inst        25856                       # Number of instructions bytes read from this memory
system.mem_ctrl.bytes_inst_read::total          25856                       # Number of instructions bytes read from this memory
system.mem_ctrl.bytes_written::.writebacks         2688                       # Number of bytes written to this memory
system.mem_ctrl.bytes_written::total             2688                       # Number of bytes written to this memory
system.mem_ctrl.num_reads::.cpu.inst              404                       # Number of read requests responded to by this memory
system.mem_ctrl.num_reads::.cpu.data              219                       # Number of read requests responded to by this memory
system.mem_ctrl.num_reads::.cpu.dcache.prefetcher           55                       # Number of read requests responded to by this memory
system.mem_ctrl.num_reads::.l2cache.prefetcher            3                       # Number of read requests responded to by this memory
system.mem_ctrl.num_reads::total                  681                       # Number of read requests responded to by this memory
system.mem_ctrl.num_writes::.writebacks            42                       # Number of write requests responded to by this memory
system.mem_ctrl.num_writes::total                  42                       # Number of write requests responded to by this memory
system.mem_ctrl.bw_read::.cpu.inst          112238201                       # Total read bandwidth from this memory (bytes/s)
system.mem_ctrl.bw_read::.cpu.data           60841995                       # Total read bandwidth from this memory (bytes/s)
system.mem_ctrl.bw_read::.cpu.dcache.prefetcher     15279953                       # Total read bandwidth from this memory (bytes/s)
system.mem_ctrl.bw_read::.l2cache.prefetcher       833452                       # Total read bandwidth from this memory (bytes/s)
system.mem_ctrl.bw_read::total              189193600                       # Total read bandwidth from this memory (bytes/s)
system.mem_ctrl.bw_inst_read::.cpu.inst     112238201                       # Instruction read bandwidth from this memory (bytes/s)
system.mem_ctrl.bw_inst_read::total         112238201                       # Instruction read bandwidth from this memory (bytes/s)
system.mem_ctrl.bw_write::.writebacks        11668328                       # Write bandwidth from this memory (bytes/s)
system.mem_ctrl.bw_write::total              11668328                       # Write bandwidth from this memory (bytes/s)
system.mem_ctrl.bw_total::.writebacks        11668328                       # Total bandwidth to/from this memory (bytes/s)
system.mem_ctrl.bw_total::.cpu.inst         112238201                       # Total bandwidth to/from this memory (bytes/s)
system.mem_ctrl.bw_total::.cpu.data          60841995                       # Total bandwidth to/from this memory (bytes/s)
system.mem_ctrl.bw_total::.cpu.dcache.prefetcher     15279953                       # Total bandwidth to/from this memory (bytes/s)
system.mem_ctrl.bw_total::.l2cache.prefetcher       833452                       # Total bandwidth to/from this memory (bytes/s)
system.mem_ctrl.bw_total::total             200861928                       # Total bandwidth to/from this memory (bytes/s)

---------- End Simulation Statistics   ----------
