
---------- Begin Simulation Statistics ----------
final_tick                                 1137353200                       # Number of ticks from beginning of simulation (restored from checkpoints and never reset)
host_inst_rate                                 186390                       # Simulator instruction rate (inst/s)
host_mem_usage                                4406836                       # Number of bytes of host memory used
host_op_rate                                   326115                       # Simulator op (including micro ops) rate (op/s)
host_seconds                                    11.77                       # Real time elapsed on the host
host_tick_rate                               96663731                       # Simulator tick rate (ticks/s)
sim_freq                                 1000000000000                       # Frequency of simulated ticks
sim_insts                                     2193071                       # Number of instructions simulated
sim_ops                                       3837095                       # Number of ops (including micro ops) simulated
sim_seconds                                  0.001137                       # Number of seconds simulated
sim_ticks                                  1137353200                       # Number of ticks simulated
system.cpu.branchPred.BTBCorrect                    0                       # Number of correct BTB predictions (this stat may not work properly.
system.cpu.branchPred.BTBHitPct              0.000000                       # BTB Hit Percentage
system.cpu.branchPred.BTBHits                       0                       # Number of BTB hits
system.cpu.branchPred.BTBLookups               459859                       # Number of BTB lookups
system.cpu.branchPred.RASInCorrect                 11                       # Number of incorrect RAS predictions.
system.cpu.branchPred.condIncorrect             24484                       # Number of conditional branches incorrect
system.cpu.branchPred.condPredicted            486778                       # Number of conditional branches predicted
system.cpu.branchPred.indirectHits             252088                       # Number of indirect target hits.
system.cpu.branchPred.indirectLookups          459859                       # Number of indirect predictor lookups.
system.cpu.branchPred.indirectMisses           207771                       # Number of indirect misses.
system.cpu.branchPred.lookups                  516846                       # Number of BP lookups
system.cpu.branchPred.usedRAS                   13312                       # Number of times the RAS was used to get a target.
system.cpu.branchPredindirectMispredicted        12088                       # Number of mispredicted indirect branches.
system.cpu.cc_regfile_reads                   2513912                       # number of cc regfile reads
system.cpu.cc_regfile_writes                  2018807                       # number of cc regfile writes
system.cpu.commit.amos                              0                       # Number of atomic instructions committed
system.cpu.commit.branchMispredicts             24575                       # The number of times a branch was mispredicted
system.cpu.commit.branches                     371503                       # Number of branches committed
system.cpu.commit.bw_lim_events                632814                       # number cycles where commit BW limit reached
system.cpu.commit.commitNonSpecStalls             742                       # The number of times commit has been forced to stall to communicate backwards
system.cpu.commit.commitSquashedInsts          893832                       # The number of squashed insts skipped by commit
system.cpu.commit.committedInsts              2193071                       # Number of instructions committed
system.cpu.commit.committedOps                3837095                       # Number of ops (including micro ops) committed
system.cpu.commit.committed_per_cycle::samples      2439548                       # Number of insts commited each cycle
system.cpu.commit.committed_per_cycle::mean     1.572871                       # Number of insts commited each cycle
system.cpu.commit.committed_per_cycle::stdev     1.722111                       # Number of insts commited each cycle
system.cpu.commit.committed_per_cycle::underflows            0      0.00%      0.00% # Number of insts commited each cycle
system.cpu.commit.committed_per_cycle::0      1175433     48.18%     48.18% # Number of insts commited each cycle
system.cpu.commit.committed_per_cycle::1       201865      8.27%     56.46% # Number of insts commited each cycle
system.cpu.commit.committed_per_cycle::2       184334      7.56%     64.01% # Number of insts commited each cycle
system.cpu.commit.committed_per_cycle::3       245102     10.05%     74.06% # Number of insts commited each cycle
system.cpu.commit.committed_per_cycle::4       632814     25.94%    100.00% # Number of insts commited each cycle
system.cpu.commit.committed_per_cycle::overflows            0      0.00%    100.00% # Number of insts commited each cycle
system.cpu.commit.committed_per_cycle::min_value            0                       # Number of insts commited each cycle
system.cpu.commit.committed_per_cycle::max_value            4                       # Number of insts commited each cycle
system.cpu.commit.committed_per_cycle::total      2439548                       # Number of insts commited each cycle
system.cpu.commit.fp_insts                      82995                       # Number of committed floating point instructions.
system.cpu.commit.function_calls                11410                       # Number of function calls committed.
system.cpu.commit.int_insts                   3774238                       # Number of committed integer instructions.
system.cpu.commit.loads                        521135                       # Number of loads committed
system.cpu.commit.membars                           1                       # Number of memory barriers committed
system.cpu.commit.op_class_0::No_OpClass        21444      0.56%      0.56% # Class of committed instruction
system.cpu.commit.op_class_0::IntAlu          3013745     78.54%     79.10% # Class of committed instruction
system.cpu.commit.op_class_0::IntMult            2765      0.07%     79.17% # Class of committed instruction
system.cpu.commit.op_class_0::IntDiv            38333      1.00%     80.17% # Class of committed instruction
system.cpu.commit.op_class_0::FloatAdd           3235      0.08%     80.26% # Class of committed instruction
system.cpu.commit.op_class_0::FloatCmp              0      0.00%     80.26% # Class of committed instruction
system.cpu.commit.op_class_0::FloatCvt           1216      0.03%     80.29% # Class of committed instruction
system.cpu.commit.op_class_0::FloatMult             0      0.00%     80.29% # Class of committed instruction
system.cpu.commit.op_class_0::FloatMultAcc            0      0.00%     80.29% # Class of committed instruction
system.cpu.commit.op_class_0::FloatDiv              0      0.00%     80.29% # Class of committed instruction
system.cpu.commit.op_class_0::FloatMisc             0      0.00%     80.29% # Class of committed instruction
system.cpu.commit.op_class_0::FloatSqrt             0      0.00%     80.29% # Class of committed instruction
system.cpu.commit.op_class_0::SimdAdd            6238      0.16%     80.45% # Class of committed instruction
system.cpu.commit.op_class_0::SimdAddAcc            0      0.00%     80.45% # Class of committed instruction
system.cpu.commit.op_class_0::SimdAlu           12785      0.33%     80.78% # Class of committed instruction
system.cpu.commit.op_class_0::SimdCmp               0      0.00%     80.78% # Class of committed instruction
system.cpu.commit.op_class_0::SimdCvt           13704      0.36%     81.14% # Class of committed instruction
system.cpu.commit.op_class_0::SimdMisc          10004      0.26%     81.40% # Class of committed instruction
system.cpu.commit.op_class_0::SimdMult              0      0.00%     81.40% # Class of committed instruction
system.cpu.commit.op_class_0::SimdMultAcc            0      0.00%     81.40% # Class of committed instruction
system.cpu.commit.op_class_0::SimdShift          1184      0.03%     81.43% # Class of committed instruction
system.cpu.commit.op_class_0::SimdShiftAcc            0      0.00%     81.43% # Class of committed instruction
system.cpu.commit.op_class_0::SimdDiv               0      0.00%     81.43% # Class of committed instruction
system.cpu.commit.op_class_0::SimdSqrt              0      0.00%     81.43% # Class of committed instruction
system.cpu.commit.op_class_0::SimdFloatAdd            0      0.00%     81.43% # Class of committed instruction
system.cpu.commit.op_class_0::SimdFloatAlu            0      0.00%     81.43% # Class of committed instruction
system.cpu.commit.op_class_0::SimdFloatCmp            0      0.00%     81.43% # Class of committed instruction
system.cpu.commit.op_class_0::SimdFloatCvt            0      0.00%     81.43% # Class of committed instruction
system.cpu.commit.op_class_0::SimdFloatDiv            0      0.00%     81.43% # Class of committed instruction
system.cpu.commit.op_class_0::SimdFloatMisc            0      0.00%     81.43% # Class of committed instruction
system.cpu.commit.op_class_0::SimdFloatMult            0      0.00%     81.43% # Class of committed instruction
system.cpu.commit.op_class_0::SimdFloatMultAcc            0      0.00%     81.43% # Class of committed instruction
system.cpu.commit.op_class_0::SimdFloatSqrt            0      0.00%     81.43% # Class of committed instruction
system.cpu.commit.op_class_0::SimdReduceAdd            0      0.00%     81.43% # Class of committed instruction
system.cpu.commit.op_class_0::SimdReduceAlu            0      0.00%     81.43% # Class of committed instruction
system.cpu.commit.op_class_0::SimdReduceCmp            0      0.00%     81.43% # Class of committed instruction
system.cpu.commit.op_class_0::SimdFloatReduceAdd            0      0.00%     81.43% # Class of committed instruction
system.cpu.commit.op_class_0::SimdFloatReduceCmp            0      0.00%     81.43% # Class of committed instruction
system.cpu.commit.op_class_0::SimdAes               0      0.00%     81.43% # Class of committed instruction
system.cpu.commit.op_class_0::SimdAesMix            0      0.00%     81.43% # Class of committed instruction
system.cpu.commit.op_class_0::SimdSha1Hash            0      0.00%     81.43% # Class of committed instruction
system.cpu.commit.op_class_0::SimdSha1Hash2            0      0.00%     81.43% # Class of committed instruction
system.cpu.commit.op_class_0::SimdSha256Hash            0      0.00%     81.43% # Class of committed instruction
system.cpu.commit.op_class_0::SimdSha256Hash2            0      0.00%     81.43% # Class of committed instruction
system.cpu.commit.op_class_0::SimdShaSigma2            0      0.00%     81.43% # Class of committed instruction
system.cpu.commit.op_class_0::SimdShaSigma3            0      0.00%     81.43% # Class of committed instruction
system.cpu.commit.op_class_0::SimdPredAlu            0      0.00%     81.43% # Class of committed instruction
system.cpu.commit.op_class_0::MemRead          500889     13.05%     94.49% # Class of committed instruction
system.cpu.commit.op_class_0::MemWrite         178940      4.66%     99.15% # Class of committed instruction
system.cpu.commit.op_class_0::FloatMemRead        20246      0.53%     99.68% # Class of committed instruction
system.cpu.commit.op_class_0::FloatMemWrite        12367      0.32%    100.00% # Class of committed instruction
system.cpu.commit.op_class_0::IprAccess             0      0.00%    100.00% # Class of committed instruction
system.cpu.commit.op_class_0::InstPrefetch            0      0.00%    100.00% # Class of committed instruction
system.cpu.commit.op_class_0::total           3837095                       # Class of committed instruction
system.cpu.commit.refs                         712442                       # Number of memory references committed
system.cpu.commit.swp_count                         0                       # Number of s/w prefetches committed
system.cpu.commit.vec_insts                         0                       # Number of committed Vector instructions.
system.cpu.committedInsts                     2193071                       # Number of Instructions Simulated
system.cpu.committedOps                       3837095                       # Number of Ops (including micro ops) Simulated
system.cpu.cpi                               1.296531                       # CPI: Cycles Per Instruction
system.cpu.cpi_total                         1.296531                       # CPI: Total CPI of All Threads
system.cpu.dcache.prefetcher.num_hwpf_issued         8204                       # number of hwpf issued
system.cpu.dcache.prefetcher.pfBufferHit        33019                       # number of redundant prefetches already in prefetch queue
system.cpu.dcache.prefetcher.pfIdentified        48413                       # number of prefetch candidates identified
system.cpu.dcache.prefetcher.pfInCache              0                       # number of redundant prefetches already in cache/mshr dropped
system.cpu.dcache.prefetcher.pfRemovedFull            0                       # number of prefetches dropped due to prefetch queue size
system.cpu.dcache.prefetcher.pfSpanPage          4395                       # number of prefetches that crossed the page
system.cpu.decode.BlockedCycles               1029967                       # Number of cycles decode is blocked
system.cpu.decode.DecodedInsts                4948564                       # Number of instructions handled by decode
system.cpu.decode.IdleCycles                   326107                       # Number of cycles decode is idle
system.cpu.decode.RunCycles                   1212923                       # Number of cycles decode is running
system.cpu.decode.SquashCycles                  24639                       # Number of cycles decode is squashing
system.cpu.decode.UnblockCycles                 89064                       # Number of cycles decode is unblocking
system.cpu.dtb.rdAccesses                      605723                       # TLB accesses on read requests
system.cpu.dtb.rdMisses                          2054                       # TLB misses on read requests
system.cpu.dtb.wrAccesses                      210783                       # TLB accesses on write requests
system.cpu.dtb.wrMisses                           160                       # TLB misses on write requests
system.cpu.fetch.Branches                      516846                       # Number of branches that fetch encountered
system.cpu.fetch.CacheLines                    264549                       # Number of cache lines fetched
system.cpu.fetch.Cycles                       2295165                       # Number of cycles fetch has run and was not squashing or blocked
system.cpu.fetch.IcacheSquashes                  4680                       # Number of outstanding Icache misses that were squashed
system.cpu.fetch.IcacheWaitRetryStallCycles           17                       # Number of stall cycles due to full MSHR
system.cpu.fetch.Insts                        2966839                       # Number of instructions fetch has processed
system.cpu.fetch.MiscStallCycles                  100                       # Number of cycles fetch has spent waiting on interrupts, or bad addresses, or out of MSHRs
system.cpu.fetch.PendingQuiesceStallCycles            8                       # Number of stall cycles due to pending quiesce instructions
system.cpu.fetch.PendingTrapStallCycles           611                       # Number of stall cycles due to pending traps
system.cpu.fetch.SquashCycles                   49278                       # Number of cycles fetch has spent squashing
system.cpu.fetch.branchRate                  0.181771                       # Number of branch fetches per cycle
system.cpu.fetch.icacheStallCycles             362160                       # Number of cycles fetch is stalled on an Icache miss
system.cpu.fetch.predictedBranches             265400                       # Number of branches that fetch has predicted taken
system.cpu.fetch.rate                        1.043418                       # Number of inst fetches per cycle
system.cpu.fetch.rateDist::samples            2682700                       # Number of instructions fetched each cycle (Total)
system.cpu.fetch.rateDist::mean              1.946816                       # Number of instructions fetched each cycle (Total)
system.cpu.fetch.rateDist::stdev             1.928712                       # Number of instructions fetched each cycle (Total)
system.cpu.fetch.rateDist::underflows               0      0.00%      0.00% # Number of instructions fetched each cycle (Total)
system.cpu.fetch.rateDist::0                  1262897     47.08%     47.08% # Number of instructions fetched each cycle (Total)
system.cpu.fetch.rateDist::1                    83341      3.11%     50.18% # Number of instructions fetched each cycle (Total)
system.cpu.fetch.rateDist::2                    62830      2.34%     52.52% # Number of instructions fetched each cycle (Total)
system.cpu.fetch.rateDist::3                    80805      3.01%     55.54% # Number of instructions fetched each cycle (Total)
system.cpu.fetch.rateDist::4                  1192827     44.46%    100.00% # Number of instructions fetched each cycle (Total)
system.cpu.fetch.rateDist::overflows                0      0.00%    100.00% # Number of instructions fetched each cycle (Total)
system.cpu.fetch.rateDist::min_value                0                       # Number of instructions fetched each cycle (Total)
system.cpu.fetch.rateDist::max_value                4                       # Number of instructions fetched each cycle (Total)
system.cpu.fetch.rateDist::total              2682700                       # Number of instructions fetched each cycle (Total)
system.cpu.fp_regfile_reads                    136539                       # number of floating regfile reads
system.cpu.fp_regfile_writes                    74459                       # number of floating regfile writes
system.cpu.fuPool.fu_ticks_busy::IntALU(0)    229914000                       # Total ticks fu was busy
system.cpu.fuPool.fu_ticks_busy::IntALU(1)    229914000                       # Total ticks fu was busy
system.cpu.fuPool.fu_ticks_busy::IntALU(2)    229914000                       # Total ticks fu was busy
system.cpu.fuPool.fu_ticks_busy::IntALU(3)    229914000                       # Total ticks fu was busy
system.cpu.fuPool.fu_ticks_busy::IntALU(4)    229914000                       # Total ticks fu was busy
system.cpu.fuPool.fu_ticks_busy::IntALU(5)    229913600                       # Total ticks fu was busy
system.cpu.fuPool.fu_ticks_busy::IntMultDiv(0)      9004000                       # Total ticks fu was busy
system.cpu.fuPool.fu_ticks_busy::IntMultDiv(1)      9003600                       # Total ticks fu was busy
system.cpu.fuPool.fu_ticks_busy::FP_ALU(0)       604000                       # Total ticks fu was busy
system.cpu.fuPool.fu_ticks_busy::FP_ALU(1)       604000                       # Total ticks fu was busy
system.cpu.fuPool.fu_ticks_busy::FP_ALU(2)       603200                       # Total ticks fu was busy
system.cpu.fuPool.fu_ticks_busy::FP_ALU(3)       603200                       # Total ticks fu was busy
system.cpu.fuPool.fu_ticks_busy::FP_MultDiv(0)            0                       # Total ticks fu was busy
system.cpu.fuPool.fu_ticks_busy::FP_MultDiv(1)            0                       # Total ticks fu was busy
system.cpu.fuPool.fu_ticks_busy::SIMD_Unit(0)      5296800                       # Total ticks fu was busy
system.cpu.fuPool.fu_ticks_busy::SIMD_Unit(1)      5219200                       # Total ticks fu was busy
system.cpu.fuPool.fu_ticks_busy::SIMD_Unit(2)      5062400                       # Total ticks fu was busy
system.cpu.fuPool.fu_ticks_busy::SIMD_Unit(3)      5086800                       # Total ticks fu was busy
system.cpu.fuPool.fu_ticks_busy::PredALU(0)            0                       # Total ticks fu was busy
system.cpu.fuPool.fu_ticks_busy::RdWrPort(0)     83194400                       # Total ticks fu was busy
system.cpu.fuPool.fu_ticks_busy::RdWrPort(1)     83140000                       # Total ticks fu was busy
system.cpu.fuPool.fu_ticks_busy::RdWrPort(2)     83082400                       # Total ticks fu was busy
system.cpu.fuPool.fu_ticks_busy::RdWrPort(3)     83168800                       # Total ticks fu was busy
system.cpu.fuPool.fu_ticks_busy::IprPort(0)            0                       # Total ticks fu was busy
system.cpu.fuPool.fu_ticks_busy::total     1753156400                       # Total ticks fu was busy
system.cpu.icache.prefetcher.num_hwpf_issued            0                       # number of hwpf issued
system.cpu.icache.prefetcher.pfBufferHit            0                       # number of redundant prefetches already in prefetch queue
system.cpu.icache.prefetcher.pfIdentified            0                       # number of prefetch candidates identified
system.cpu.icache.prefetcher.pfInCache              0                       # number of redundant prefetches already in cache/mshr dropped
system.cpu.icache.prefetcher.pfRemovedFull            0                       # number of prefetches dropped due to prefetch queue size
system.cpu.icache.prefetcher.pfSpanPage             0                       # number of prefetches that crossed the page
system.cpu.idleCycles                          160684                       # Total number of cycles that the CPU has spent unscheduled due to idling
system.cpu.iew.branchMispredicts                29018                       # Number of branch mispredicts detected at execute
system.cpu.iew.exec_branches                   402667                       # Number of branches executed
system.cpu.iew.exec_nop                             0                       # number of nop insts executed
system.cpu.iew.exec_rate                     1.538755                       # Inst execution rate
system.cpu.iew.exec_refs                       818263                       # number of memory reference insts executed
system.cpu.iew.exec_stores                     210720                       # Number of stores executed
system.cpu.iew.exec_swp                             0                       # number of swp insts executed
system.cpu.iew.iewBlockCycles                  697140                       # Number of cycles IEW is blocking
system.cpu.iew.iewDispLoadInsts                638745                       # Number of dispatched load instructions
system.cpu.iew.iewDispNonSpecInsts                938                       # Number of dispatched non-speculative instructions
system.cpu.iew.iewDispSquashedInsts               601                       # Number of squashed instructions skipped by dispatch
system.cpu.iew.iewDispStoreInsts               221538                       # Number of dispatched store instructions
system.cpu.iew.iewDispatchedInsts             4730866                       # Number of instructions dispatched to IQ
system.cpu.iew.iewExecLoadInsts                607543                       # Number of load instructions executed
system.cpu.iew.iewExecSquashedInsts             35071                       # Number of squashed instructions skipped in execute
system.cpu.iew.iewExecutedInsts               4375270                       # Number of executed instructions
system.cpu.iew.iewIQFullEvents                   3292                       # Number of times the IQ has become full, causing a stall
system.cpu.iew.iewIdleCycles                        0                       # Number of cycles IEW is idle
system.cpu.iew.iewLSQFullEvents                  9024                       # Number of times the LSQ has become full, causing a stall
system.cpu.iew.iewSquashCycles                  24639                       # Number of cycles IEW is squashing
system.cpu.iew.iewUnblockCycles                 15151                       # Number of cycles IEW is unblocking
system.cpu.iew.lsq.thread0.blockedLoads             0                       # Number of blocked loads due to partial load-store forwarding
system.cpu.iew.lsq.thread0.cacheBlocked           578                       # Number of times an access to memory failed due to the cache being blocked
system.cpu.iew.lsq.thread0.forwLoads            42073                       # Number of loads that had data forwarded from stores
system.cpu.iew.lsq.thread0.ignoredResponses          243                       # Number of memory responses ignored because the instruction is squashed
system.cpu.iew.lsq.thread0.invAddrLoads             0                       # Number of loads ignored due to an invalid address
system.cpu.iew.lsq.thread0.invAddrSwpfs             0                       # Number of software prefetches ignored due to an invalid address
system.cpu.iew.lsq.thread0.memOrderViolation           78                       # Number of memory ordering violations
system.cpu.iew.lsq.thread0.rescheduledLoads           32                       # Number of loads that were rescheduled
system.cpu.iew.lsq.thread0.squashedLoads       117608                       # Number of loads squashed
system.cpu.iew.lsq.thread0.squashedStores        30230                       # Number of stores squashed
system.cpu.iew.memOrderViolationEvents             78                       # Number of memory order violations
system.cpu.iew.predictedNotTakenIncorrect        20567                       # Number of branches that were predicted not taken incorrectly
system.cpu.iew.predictedTakenIncorrect           8451                       # Number of branches that were predicted taken incorrectly
system.cpu.iew.wb_consumers                   6064343                       # num instructions consuming a value
system.cpu.iew.wb_count                       4353083                       # cumulative count of insts written-back
system.cpu.iew.wb_fanout                     0.569643                       # average fanout of values written-back
system.cpu.iew.wb_producers                   3454509                       # num instructions producing a value
system.cpu.iew.wb_rate                       1.530952                       # insts written-back per cycle
system.cpu.iew.wb_sent                        4360160                       # cumulative count of insts sent to commit
system.cpu.int_regfile_reads                  6768094                       # number of integer regfile reads
system.cpu.int_regfile_writes                 3743723                       # number of integer regfile writes
system.cpu.ipc                               0.771289                       # IPC: Instructions Per Cycle
system.cpu.ipc_total                         0.771289                       # IPC: Total IPC of All Threads
system.cpu.iq.FU_type_0::No_OpClass             27450      0.62%      0.62% # Type of FU issued
system.cpu.iq.FU_type_0::IntAlu               3448710     78.20%     78.82% # Type of FU issued
system.cpu.iq.FU_type_0::IntMult                 2787      0.06%     78.88% # Type of FU issued
system.cpu.iq.FU_type_0::IntDiv                 42232      0.96%     79.84% # Type of FU issued
system.cpu.iq.FU_type_0::FloatAdd                4774      0.11%     79.95% # Type of FU issued
system.cpu.iq.FU_type_0::FloatCmp                   0      0.00%     79.95% # Type of FU issued
system.cpu.iq.FU_type_0::FloatCvt                1262      0.03%     79.98% # Type of FU issued
system.cpu.iq.FU_type_0::FloatMult                  0      0.00%     79.98% # Type of FU issued
system.cpu.iq.FU_type_0::FloatMultAcc               0      0.00%     79.98% # Type of FU issued
system.cpu.iq.FU_type_0::FloatDiv                   0      0.00%     79.98% # Type of FU issued
system.cpu.iq.FU_type_0::FloatMisc                  0      0.00%     79.98% # Type of FU issued
system.cpu.iq.FU_type_0::FloatSqrt                  0      0.00%     79.98% # Type of FU issued
system.cpu.iq.FU_type_0::SimdAdd                 6896      0.16%     80.13% # Type of FU issued
system.cpu.iq.FU_type_0::SimdAddAcc                 0      0.00%     80.13% # Type of FU issued
system.cpu.iq.FU_type_0::SimdAlu                16431      0.37%     80.50% # Type of FU issued
system.cpu.iq.FU_type_0::SimdCmp                    0      0.00%     80.50% # Type of FU issued
system.cpu.iq.FU_type_0::SimdCvt                15504      0.35%     80.86% # Type of FU issued
system.cpu.iq.FU_type_0::SimdMisc               10602      0.24%     81.10% # Type of FU issued
system.cpu.iq.FU_type_0::SimdMult                   0      0.00%     81.10% # Type of FU issued
system.cpu.iq.FU_type_0::SimdMultAcc                0      0.00%     81.10% # Type of FU issued
system.cpu.iq.FU_type_0::SimdShift               2230      0.05%     81.15% # Type of FU issued
system.cpu.iq.FU_type_0::SimdShiftAcc               0      0.00%     81.15% # Type of FU issued
system.cpu.iq.FU_type_0::SimdDiv                    0      0.00%     81.15% # Type of FU issued
system.cpu.iq.FU_type_0::SimdSqrt                   0      0.00%     81.15% # Type of FU issued
system.cpu.iq.FU_type_0::SimdFloatAdd               0      0.00%     81.15% # Type of FU issued
system.cpu.iq.FU_type_0::SimdFloatAlu               0      0.00%     81.15% # Type of FU issued
system.cpu.iq.FU_type_0::SimdFloatCmp               0      0.00%     81.15% # Type of FU issued
system.cpu.iq.FU_type_0::SimdFloatCvt               0      0.00%     81.15% # Type of FU issued
system.cpu.iq.FU_type_0::SimdFloatDiv               0      0.00%     81.15% # Type of FU issued
system.cpu.iq.FU_type_0::SimdFloatMisc              0      0.00%     81.15% # Type of FU issued
system.cpu.iq.FU_type_0::SimdFloatMult              0      0.00%     81.15% # Type of FU issued
system.cpu.iq.FU_type_0::SimdFloatMultAcc            0      0.00%     81.15% # Type of FU issued
system.cpu.iq.FU_type_0::SimdFloatSqrt              0      0.00%     81.15% # Type of FU issued
system.cpu.iq.FU_type_0::SimdReduceAdd              0      0.00%     81.15% # Type of FU issued
system.cpu.iq.FU_type_0::SimdReduceAlu              0      0.00%     81.15% # Type of FU issued
system.cpu.iq.FU_type_0::SimdReduceCmp              0      0.00%     81.15% # Type of FU issued
system.cpu.iq.FU_type_0::SimdFloatReduceAdd            0      0.00%     81.15% # Type of FU issued
system.cpu.iq.FU_type_0::SimdFloatReduceCmp            0      0.00%     81.15% # Type of FU issued
system.cpu.iq.FU_type_0::SimdAes                    0      0.00%     81.15% # Type of FU issued
system.cpu.iq.FU_type_0::SimdAesMix                 0      0.00%     81.15% # Type of FU issued
system.cpu.iq.FU_type_0::SimdSha1Hash               0      0.00%     81.15% # Type of FU issued
system.cpu.iq.FU_type_0::SimdSha1Hash2              0      0.00%     81.15% # Type of FU issued
system.cpu.iq.FU_type_0::SimdSha256Hash             0      0.00%     81.15% # Type of FU issued
system.cpu.iq.FU_type_0::SimdSha256Hash2            0      0.00%     81.15% # Type of FU issued
system.cpu.iq.FU_type_0::SimdShaSigma2              0      0.00%     81.15% # Type of FU issued
system.cpu.iq.FU_type_0::SimdShaSigma3              0      0.00%     81.15% # Type of FU issued
system.cpu.iq.FU_type_0::SimdPredAlu                0      0.00%     81.15% # Type of FU issued
system.cpu.iq.FU_type_0::MemRead               592002     13.42%     94.57% # Type of FU issued
system.cpu.iq.FU_type_0::MemWrite              199560      4.52%     99.10% # Type of FU issued
system.cpu.iq.FU_type_0::FloatMemRead           26140      0.59%     99.69% # Type of FU issued
system.cpu.iq.FU_type_0::FloatMemWrite          13764      0.31%    100.00% # Type of FU issued
system.cpu.iq.FU_type_0::IprAccess                  0      0.00%    100.00% # Type of FU issued
system.cpu.iq.FU_type_0::InstPrefetch               0      0.00%    100.00% # Type of FU issued
system.cpu.iq.FU_type_0::total                4410344                       # Type of FU issued
system.cpu.iq.fp_alu_accesses                   99778                       # Number of floating point alu accesses
system.cpu.iq.fp_inst_queue_reads              200956                       # Number of floating instruction queue reads
system.cpu.iq.fp_inst_queue_wakeup_accesses        96353                       # Number of floating instruction queue wakeup accesses
system.cpu.iq.fp_inst_queue_writes             140271                       # Number of floating instruction queue writes
system.cpu.iq.fu_busy_cnt                           0                       # FU busy when requested
system.cpu.iq.fu_busy_rate                          0                       # FU busy rate (busy events/executed inst)
system.cpu.iq.fu_full::No_OpClass                   0                       # attempts to use FU when none available
system.cpu.iq.fu_full::IntAlu                       0                       # attempts to use FU when none available
system.cpu.iq.fu_full::IntMult                      0                       # attempts to use FU when none available
system.cpu.iq.fu_full::IntDiv                       0                       # attempts to use FU when none available
system.cpu.iq.fu_full::FloatAdd                     0                       # attempts to use FU when none available
system.cpu.iq.fu_full::FloatCmp                     0                       # attempts to use FU when none available
system.cpu.iq.fu_full::FloatCvt                     0                       # attempts to use FU when none available
system.cpu.iq.fu_full::FloatMult                    0                       # attempts to use FU when none available
system.cpu.iq.fu_full::FloatMultAcc                 0                       # attempts to use FU when none available
system.cpu.iq.fu_full::FloatDiv                     0                       # attempts to use FU when none available
system.cpu.iq.fu_full::FloatMisc                    0                       # attempts to use FU when none available
system.cpu.iq.fu_full::FloatSqrt                    0                       # attempts to use FU when none available
system.cpu.iq.fu_full::SimdAdd                      0                       # attempts to use FU when none available
system.cpu.iq.fu_full::SimdAddAcc                   0                       # attempts to use FU when none available
system.cpu.iq.fu_full::SimdAlu                      0                       # attempts to use FU when none available
system.cpu.iq.fu_full::SimdCmp                      0                       # attempts to use FU when none available
system.cpu.iq.fu_full::SimdCvt                      0                       # attempts to use FU when none available
system.cpu.iq.fu_full::SimdMisc                     0                       # attempts to use FU when none available
system.cpu.iq.fu_full::SimdMult                     0                       # attempts to use FU when none available
system.cpu.iq.fu_full::SimdMultAcc                  0                       # attempts to use FU when none available
system.cpu.iq.fu_full::SimdShift                    0                       # attempts to use FU when none available
system.cpu.iq.fu_full::SimdShiftAcc                 0                       # attempts to use FU when none available
system.cpu.iq.fu_full::SimdDiv                      0                       # attempts to use FU when none available
system.cpu.iq.fu_full::SimdSqrt                     0                       # attempts to use FU when none available
system.cpu.iq.fu_full::SimdFloatAdd                 0                       # attempts to use FU when none available
system.cpu.iq.fu_full::SimdFloatAlu                 0                       # attempts to use FU when none available
system.cpu.iq.fu_full::SimdFloatCmp                 0                       # attempts to use FU when none available
system.cpu.iq.fu_full::SimdFloatCvt                 0                       # attempts to use FU when none available
system.cpu.iq.fu_full::SimdFloatDiv                 0                       # attempts to use FU when none available
system.cpu.iq.fu_full::SimdFloatMisc                0                       # attempts to use FU when none available
system.cpu.iq.fu_full::SimdFloatMult                0                       # attempts to use FU when none available
system.cpu.iq.fu_full::SimdFloatMultAcc             0                       # attempts to use FU when none available
system.cpu.iq.fu_full::SimdFloatSqrt                0                       # attempts to use FU when none available
system.cpu.iq.fu_full::SimdReduceAdd                0                       # attempts to use FU when none available
system.cpu.iq.fu_full::SimdReduceAlu                0                       # attempts to use FU when none available
system.cpu.iq.fu_full::SimdReduceCmp                0                       # attempts to use FU when none available
system.cpu.iq.fu_full::SimdFloatReduceAdd            0                       # attempts to use FU when none available
system.cpu.iq.fu_full::SimdFloatReduceCmp            0                       # attempts to use FU when none available
system.cpu.iq.fu_full::SimdAes                      0                       # attempts to use FU when none available
system.cpu.iq.fu_full::SimdAesMix                   0                       # attempts to use FU when none available
system.cpu.iq.fu_full::SimdSha1Hash                 0                       # attempts to use FU when none available
system.cpu.iq.fu_full::SimdSha1Hash2                0                       # attempts to use FU when none available
system.cpu.iq.fu_full::SimdSha256Hash               0                       # attempts to use FU when none available
system.cpu.iq.fu_full::SimdSha256Hash2              0                       # attempts to use FU when none available
system.cpu.iq.fu_full::SimdShaSigma2                0                       # attempts to use FU when none available
system.cpu.iq.fu_full::SimdShaSigma3                0                       # attempts to use FU when none available
system.cpu.iq.fu_full::SimdPredAlu                  0                       # attempts to use FU when none available
system.cpu.iq.fu_full::MemRead                      0                       # attempts to use FU when none available
system.cpu.iq.fu_full::MemWrite                     0                       # attempts to use FU when none available
system.cpu.iq.fu_full::FloatMemRead                 0                       # attempts to use FU when none available
system.cpu.iq.fu_full::FloatMemWrite                0                       # attempts to use FU when none available
system.cpu.iq.fu_full::IprAccess                    0                       # attempts to use FU when none available
system.cpu.iq.fu_full::InstPrefetch                 0                       # attempts to use FU when none available
system.cpu.iq.int_alu_accesses                4283116                       # Number of integer alu accesses
system.cpu.iq.int_inst_queue_reads           11321041                       # Number of integer instruction queue reads
system.cpu.iq.int_inst_queue_wakeup_accesses      4256730                       # Number of integer instruction queue wakeup accesses
system.cpu.iq.int_inst_queue_writes           5484431                       # Number of integer instruction queue writes
system.cpu.iq.iqInstsAdded                    4729747                       # Number of instructions added to the IQ (excludes non-spec)
system.cpu.iq.iqInstsIssued                   4410344                       # Number of instructions issued
system.cpu.iq.iqNonSpecInstsAdded                1119                       # Number of non-speculative instructions added to the IQ
system.cpu.iq.iqSquashedInstsExamined          893760                       # Number of squashed instructions iterated over during squash; mainly for profiling
system.cpu.iq.iqSquashedInstsIssued             18612                       # Number of squashed instructions issued
system.cpu.iq.iqSquashedNonSpecRemoved            377                       # Number of squashed non-spec instructions that were removed
system.cpu.iq.iqSquashedOperandsExamined      1323650                       # Number of squashed operands that are examined and possibly removed from graph
system.cpu.iq.issued_per_cycle::samples       2682700                       # Number of insts issued each cycle
system.cpu.iq.issued_per_cycle::mean         1.643994                       # Number of insts issued each cycle
system.cpu.iq.issued_per_cycle::stdev        1.667093                       # Number of insts issued each cycle
system.cpu.iq.issued_per_cycle::underflows            0      0.00%      0.00% # Number of insts issued each cycle
system.cpu.iq.issued_per_cycle::0             1187665     44.27%     44.27% # Number of insts issued each cycle
system.cpu.iq.issued_per_cycle::1              189156      7.05%     51.32% # Number of insts issued each cycle
system.cpu.iq.issued_per_cycle::2              319707     11.92%     63.24% # Number of insts issued each cycle
system.cpu.iq.issued_per_cycle::3              362914     13.53%     76.77% # Number of insts issued each cycle
system.cpu.iq.issued_per_cycle::4              623258     23.23%    100.00% # Number of insts issued each cycle
system.cpu.iq.issued_per_cycle::overflows            0      0.00%    100.00% # Number of insts issued each cycle
system.cpu.iq.issued_per_cycle::min_value            0                       # Number of insts issued each cycle
system.cpu.iq.issued_per_cycle::max_value            4                       # Number of insts issued each cycle
system.cpu.iq.issued_per_cycle::total         2682700                       # Number of insts issued each cycle
system.cpu.iq.rate                           1.551090                       # Inst issue rate
system.cpu.iq.vec_alu_accesses                      0                       # Number of vector alu accesses
system.cpu.iq.vec_inst_queue_reads                  0                       # Number of vector instruction queue reads
system.cpu.iq.vec_inst_queue_wakeup_accesses            0                       # Number of vector instruction queue wakeup accesses
system.cpu.iq.vec_inst_queue_writes                 0                       # Number of vector instruction queue writes
system.cpu.itb.rdAccesses                           0                       # TLB accesses on read requests
system.cpu.itb.rdMisses                             0                       # TLB misses on read requests
system.cpu.itb.wrAccesses                      264653                       # TLB accesses on write requests
system.cpu.itb.wrMisses                           360                       # TLB misses on write requests
system.cpu.memDep0.conflictingLoads             13888                       # Number of conflicting loads.
system.cpu.memDep0.conflictingStores             4986                       # Number of conflicting stores.
system.cpu.memDep0.insertedLoads               638745                       # Number of loads inserted to the mem dependence unit.
system.cpu.memDep0.insertedStores              221538                       # Number of stores inserted to the mem dependence unit.
system.cpu.misc_regfile_reads                 1659652                       # number of misc regfile reads
system.cpu.misc_regfile_writes                    684                       # number of misc regfile writes
system.cpu.numCycles                          2843384                       # number of cpu cycles simulated
system.cpu.numWorkItemsCompleted                    0                       # number of work items this cpu completed
system.cpu.numWorkItemsStarted                      0                       # number of work items this cpu started
system.cpu.process.numSyscalls                     57                       # Number of system calls
system.cpu.rename.BlockCycles                  839551                       # Number of cycles rename is blocking
system.cpu.rename.CommittedMaps               5204735                       # Number of HB maps that are committed
system.cpu.rename.FullRegisterEvents              159                       # Number of times there has been no free registers
system.cpu.rename.IQFullEvents                  46958                       # Number of times rename has blocked due to IQ full
system.cpu.rename.IdleCycles                   376645                       # Number of cycles rename is idle
system.cpu.rename.LQFullEvents                  15254                       # Number of times rename has blocked due to LQ full
system.cpu.rename.ROBFullEvents                  4514                       # Number of times rename has blocked due to ROB full
system.cpu.rename.RenameLookups              12720903                       # Number of register rename lookups that rename has made
system.cpu.rename.RenamedInsts                4873526                       # Number of instructions processed by rename
system.cpu.rename.RenamedOperands             6608217                       # Number of destination operands rename has renamed
system.cpu.rename.RunCycles                   1243173                       # Number of cycles rename is running
system.cpu.rename.SQFullEvents                  78840                       # Number of times rename has blocked due to SQ full
system.cpu.rename.SquashCycles                  24639                       # Number of cycles rename is squashing
system.cpu.rename.UnblockCycles                178144                       # Number of cycles rename is unblocking
system.cpu.rename.UndoneMaps                  1403459                       # Number of HB maps that are undone due to squashing
system.cpu.rename.fp_rename_lookups            170978                       # Number of floating rename lookups
system.cpu.rename.int_rename_lookups          7717331                       # Number of integer rename lookups
system.cpu.rename.serializeStallCycles          20548                       # count of cycles rename stalled for serializing inst
system.cpu.rename.serializingInsts                881                       # count of serializing insts renamed
system.cpu.rename.skidInsts                    206796                       # count of insts added to the skid buffer
system.cpu.rename.tempSerializingInsts            936                       # count of temporary serializing insts renamed
system.cpu.rob.rob_reads                      6537661                       # The number of ROB reads
system.cpu.rob.rob_writes                     9705888                       # The number of ROB writes
system.cpu.timesIdled                            1797                       # Number of times that the entire CPU went into an idle state and unscheduled itself
system.l2bus.snoop_filter.hit_multi_requests           12                       # Number of requests hitting in the snoop filter with multiple (>1) holders of the requested data.
system.l2bus.snoop_filter.hit_multi_snoops            1                       # Number of snoops hitting in the snoop filter with multiple (>1) holders of the requested data.
system.l2bus.snoop_filter.hit_single_requests        18726                       # Number of requests hitting in the snoop filter with a single holder of the requested data.
system.l2bus.snoop_filter.hit_single_snoops          435                       # Number of snoops hitting in the snoop filter with a single holder of the requested data.
system.l2bus.snoop_filter.tot_requests          38732                       # Total number of requests made to the snoop filter.
system.l2bus.snoop_filter.tot_snoops              436                       # Total number of snoops made to the snoop filter.
system.l2cache.prefetcher.num_hwpf_issued          635                       # number of hwpf issued
system.l2cache.prefetcher.pfBufferHit               0                       # number of redundant prefetches already in prefetch queue
system.l2cache.prefetcher.pfIdentified            635                       # number of prefetch candidates identified
system.l2cache.prefetcher.pfInCache                 0                       # number of redundant prefetches already in cache/mshr dropped
system.l2cache.prefetcher.pfRemovedFull             0                       # number of prefetches dropped due to prefetch queue size
system.l2cache.prefetcher.pfSpanPage              125                       # number of prefetches that crossed the page
system.membus.snoop_filter.hit_multi_requests            0                       # Number of requests hitting in the snoop filter with multiple (>1) holders of the requested data.
system.membus.snoop_filter.hit_multi_snoops            0                       # Number of snoops hitting in the snoop filter with multiple (>1) holders of the requested data.
system.membus.snoop_filter.hit_single_requests         9394                       # Number of requests hitting in the snoop filter with a single holder of the requested data.
system.membus.snoop_filter.hit_single_snoops            0                       # Number of snoops hitting in the snoop filter with a single holder of the requested data.
system.membus.snoop_filter.tot_requests         22906                       # Total number of requests made to the snoop filter.
system.membus.snoop_filter.tot_snoops               0                       # Total number of snoops made to the snoop filter.
system.membus.pwrStateResidencyTicks::UNDEFINED   1137353200                       # Cumulative time (in ticks) in various power states
system.membus.trans_dist::ReadResp              12119                       # Transaction distribution
system.membus.trans_dist::WritebackDirty         1356                       # Transaction distribution
system.membus.trans_dist::CleanEvict             8038                       # Transaction distribution
system.membus.trans_dist::ReadExReq              1393                       # Transaction distribution
system.membus.trans_dist::ReadExResp             1393                       # Transaction distribution
system.membus.trans_dist::ReadSharedReq         12119                       # Transaction distribution
system.membus.pkt_count_system.l2cache.mem_side::system.mem_ctrl.port        36418                       # Packet count per connected master and slave (bytes)
system.membus.pkt_count_system.l2cache.mem_side::total        36418                       # Packet count per connected master and slave (bytes)
system.membus.pkt_count::total                  36418                       # Packet count per connected master and slave (bytes)
system.membus.pkt_size_system.l2cache.mem_side::system.mem_ctrl.port       951552                       # Cumulative packet size per connected master and slave (bytes)
system.membus.pkt_size_system.l2cache.mem_side::total       951552                       # Cumulative packet size per connected master and slave (bytes)
system.membus.pkt_size::total                  951552                       # Cumulative packet size per connected master and slave (bytes)
system.membus.snoops                                0                       # Total snoops (count)
system.membus.snoopTraffic                          0                       # Total snoop traffic (bytes)
system.membus.snoop_fanout::samples             13512                       # Request fanout histogram
system.membus.snoop_fanout::mean                    0                       # Request fanout histogram
system.membus.snoop_fanout::stdev                   0                       # Request fanout histogram
system.membus.snoop_fanout::underflows              0      0.00%      0.00% # Request fanout histogram
system.membus.snoop_fanout::0                   13512    100.00%    100.00% # Request fanout histogram
system.membus.snoop_fanout::1                       0      0.00%    100.00% # Request fanout histogram
system.membus.snoop_fanout::overflows               0      0.00%    100.00% # Request fanout histogram
system.membus.snoop_fanout::min_value               0                       # Request fanout histogram
system.membus.snoop_fanout::max_value               0                       # Request fanout histogram
system.membus.snoop_fanout::total               13512                       # Request fanout histogram
system.membus.reqLayer2.occupancy            11356986                       # Layer occupancy (ticks)
system.membus.reqLayer2.utilization               1.0                       # Layer utilization (%)
system.membus.respLayer0.occupancy           29326314                       # Layer occupancy (ticks)
system.membus.respLayer0.utilization              2.6                       # Layer utilization (%)
system.l2bus.pwrStateResidencyTicks::UNDEFINED   1137353200                       # Cumulative time (in ticks) in various power states
system.l2bus.trans_dist::ReadResp               17897                       # Transaction distribution
system.l2bus.trans_dist::WritebackDirty          4136                       # Transaction distribution
system.l2bus.trans_dist::CleanEvict             24068                       # Transaction distribution
system.l2bus.trans_dist::HardPFReq                892                       # Transaction distribution
system.l2bus.trans_dist::UpgradeReq                 2                       # Transaction distribution
system.l2bus.trans_dist::UpgradeResp                2                       # Transaction distribution
system.l2bus.trans_dist::ReadExReq               2109                       # Transaction distribution
system.l2bus.trans_dist::ReadExResp              2109                       # Transaction distribution
system.l2bus.trans_dist::ReadSharedReq          17897                       # Transaction distribution
system.l2bus.pkt_count_system.cpu.icache.mem_side::system.l2cache.cpu_side         9227                       # Packet count per connected master and slave (bytes)
system.l2bus.pkt_count_system.cpu.dcache.mem_side::system.l2cache.cpu_side        49509                       # Packet count per connected master and slave (bytes)
system.l2bus.pkt_count::total                   58736                       # Packet count per connected master and slave (bytes)
system.l2bus.pkt_size_system.cpu.icache.mem_side::system.l2cache.cpu_side       202240                       # Cumulative packet size per connected master and slave (bytes)
system.l2bus.pkt_size_system.cpu.dcache.mem_side::system.l2cache.cpu_side      1255808                       # Cumulative packet size per connected master and slave (bytes)
system.l2bus.pkt_size::total                  1458048                       # Cumulative packet size per connected master and slave (bytes)
system.l2bus.snoops                             10376                       # Total snoops (count)
system.l2bus.snoopTraffic                       87040                       # Total snoop traffic (bytes)
system.l2bus.snoop_fanout::samples              30380                       # Request fanout histogram
system.l2bus.snoop_fanout::mean              0.014845                       # Request fanout histogram
system.l2bus.snoop_fanout::stdev             0.121207                       # Request fanout histogram
system.l2bus.snoop_fanout::underflows               0      0.00%      0.00% # Request fanout histogram
system.l2bus.snoop_fanout::0                    29930     98.52%     98.52% # Request fanout histogram
system.l2bus.snoop_fanout::1                      449      1.48%    100.00% # Request fanout histogram
system.l2bus.snoop_fanout::2                        1      0.00%    100.00% # Request fanout histogram
system.l2bus.snoop_fanout::overflows                0      0.00%    100.00% # Request fanout histogram
system.l2bus.snoop_fanout::min_value                0                       # Request fanout histogram
system.l2bus.snoop_fanout::max_value                2                       # Request fanout histogram
system.l2bus.snoop_fanout::total                30380                       # Request fanout histogram
system.l2bus.respLayer1.occupancy            20213597                       # Layer occupancy (ticks)
system.l2bus.respLayer1.utilization               1.8                       # Layer utilization (%)
system.l2bus.reqLayer0.occupancy             19151450                       # Layer occupancy (ticks)
system.l2bus.reqLayer0.utilization                1.7                       # Layer utilization (%)
system.l2bus.respLayer0.occupancy             3795999                       # Layer occupancy (ticks)
system.l2bus.respLayer0.utilization               0.3                       # Layer utilization (%)
system.clk_domain.clock                           400                       # Clock period in ticks
system.clk_domain.voltage_domain.voltage            1                       # Voltage in Volts
system.cpu.pwrStateResidencyTicks::ON      1137353200                       # Cumulative time (in ticks) in various power states
system.cpu.icache.pwrStateResidencyTicks::UNDEFINED   1137353200                       # Cumulative time (in ticks) in various power states
system.cpu.icache.demand_hits::.cpu.inst       260712                       # number of demand (read+write) hits
system.cpu.icache.demand_hits::total           260712                       # number of demand (read+write) hits
system.cpu.icache.overall_hits::.cpu.inst       260712                       # number of overall hits
system.cpu.icache.overall_hits::total          260712                       # number of overall hits
system.cpu.icache.demand_misses::.cpu.inst         3837                       # number of demand (read+write) misses
system.cpu.icache.demand_misses::total           3837                       # number of demand (read+write) misses
system.cpu.icache.overall_misses::.cpu.inst         3837                       # number of overall misses
system.cpu.icache.overall_misses::total          3837                       # number of overall misses
system.cpu.icache.demand_miss_latency::.cpu.inst    179245999                       # number of demand (read+write) miss cycles
system.cpu.icache.demand_miss_latency::total    179245999                       # number of demand (read+write) miss cycles
system.cpu.icache.overall_miss_latency::.cpu.inst    179245999                       # number of overall miss cycles
system.cpu.icache.overall_miss_latency::total    179245999                       # number of overall miss cycles
system.cpu.icache.demand_accesses::.cpu.inst       264549                       # number of demand (read+write) accesses
system.cpu.icache.demand_accesses::total       264549                       # number of demand (read+write) accesses
system.cpu.icache.overall_accesses::.cpu.inst       264549                       # number of overall (read+write) accesses
system.cpu.icache.overall_accesses::total       264549                       # number of overall (read+write) accesses
system.cpu.icache.demand_miss_rate::.cpu.inst     0.014504                       # miss rate for demand accesses
system.cpu.icache.demand_miss_rate::total     0.014504                       # miss rate for demand accesses
system.cpu.icache.overall_miss_rate::.cpu.inst     0.014504                       # miss rate for overall accesses
system.cpu.icache.overall_miss_rate::total     0.014504                       # miss rate for overall accesses
system.cpu.icache.demand_avg_miss_latency::.cpu.inst 46715.141777                       # average overall miss latency
system.cpu.icache.demand_avg_miss_latency::total 46715.141777                       # average overall miss latency
system.cpu.icache.overall_avg_miss_latency::.cpu.inst 46715.141777                       # average overall miss latency
system.cpu.icache.overall_avg_miss_latency::total 46715.141777                       # average overall miss latency
system.cpu.icache.blocked_cycles::no_mshrs           97                       # number of cycles access was blocked
system.cpu.icache.blocked_cycles::no_targets            0                       # number of cycles access was blocked
system.cpu.icache.blocked::no_mshrs                 3                       # number of cycles access was blocked
system.cpu.icache.blocked::no_targets               0                       # number of cycles access was blocked
system.cpu.icache.avg_blocked_cycles::no_mshrs    32.333333                       # average number of cycles each access was blocked
system.cpu.icache.avg_blocked_cycles::no_targets          nan                       # average number of cycles each access was blocked
system.cpu.icache.writebacks::.writebacks            1                       # number of writebacks
system.cpu.icache.writebacks::total                 1                       # number of writebacks
system.cpu.icache.demand_mshr_hits::.cpu.inst          674                       # number of demand (read+write) MSHR hits
system.cpu.icache.demand_mshr_hits::total          674                       # number of demand (read+write) MSHR hits
system.cpu.icache.overall_mshr_hits::.cpu.inst          674                       # number of overall MSHR hits
system.cpu.icache.overall_mshr_hits::total          674                       # number of overall MSHR hits
system.cpu.icache.demand_mshr_misses::.cpu.inst         3163                       # number of demand (read+write) MSHR misses
system.cpu.icache.demand_mshr_misses::total         3163                       # number of demand (read+write) MSHR misses
system.cpu.icache.overall_mshr_misses::.cpu.inst         3163                       # number of overall MSHR misses
system.cpu.icache.overall_mshr_misses::total         3163                       # number of overall MSHR misses
system.cpu.icache.demand_mshr_miss_latency::.cpu.inst    146311999                       # number of demand (read+write) MSHR miss cycles
system.cpu.icache.demand_mshr_miss_latency::total    146311999                       # number of demand (read+write) MSHR miss cycles
system.cpu.icache.overall_mshr_miss_latency::.cpu.inst    146311999                       # number of overall MSHR miss cycles
system.cpu.icache.overall_mshr_miss_latency::total    146311999                       # number of overall MSHR miss cycles
system.cpu.icache.demand_mshr_miss_rate::.cpu.inst     0.011956                       # mshr miss rate for demand accesses
system.cpu.icache.demand_mshr_miss_rate::total     0.011956                       # mshr miss rate for demand accesses
system.cpu.icache.overall_mshr_miss_rate::.cpu.inst     0.011956                       # mshr miss rate for overall accesses
system.cpu.icache.overall_mshr_miss_rate::total     0.011956                       # mshr miss rate for overall accesses
system.cpu.icache.demand_avg_mshr_miss_latency::.cpu.inst 46257.350300                       # average overall mshr miss latency
system.cpu.icache.demand_avg_mshr_miss_latency::total 46257.350300                       # average overall mshr miss latency
system.cpu.icache.overall_avg_mshr_miss_latency::.cpu.inst 46257.350300                       # average overall mshr miss latency
system.cpu.icache.overall_avg_mshr_miss_latency::total 46257.350300                       # average overall mshr miss latency
system.cpu.icache.replacements                   2905                       # number of replacements
system.cpu.icache.ReadReq_hits::.cpu.inst       260712                       # number of ReadReq hits
system.cpu.icache.ReadReq_hits::total          260712                       # number of ReadReq hits
system.cpu.icache.ReadReq_misses::.cpu.inst         3837                       # number of ReadReq misses
system.cpu.icache.ReadReq_misses::total          3837                       # number of ReadReq misses
system.cpu.icache.ReadReq_miss_latency::.cpu.inst    179245999                       # number of ReadReq miss cycles
system.cpu.icache.ReadReq_miss_latency::total    179245999                       # number of ReadReq miss cycles
system.cpu.icache.ReadReq_accesses::.cpu.inst       264549                       # number of ReadReq accesses(hits+misses)
system.cpu.icache.ReadReq_accesses::total       264549                       # number of ReadReq accesses(hits+misses)
system.cpu.icache.ReadReq_miss_rate::.cpu.inst     0.014504                       # miss rate for ReadReq accesses
system.cpu.icache.ReadReq_miss_rate::total     0.014504                       # miss rate for ReadReq accesses
system.cpu.icache.ReadReq_avg_miss_latency::.cpu.inst 46715.141777                       # average ReadReq miss latency
system.cpu.icache.ReadReq_avg_miss_latency::total 46715.141777                       # average ReadReq miss latency
system.cpu.icache.ReadReq_mshr_hits::.cpu.inst          674                       # number of ReadReq MSHR hits
system.cpu.icache.ReadReq_mshr_hits::total          674                       # number of ReadReq MSHR hits
system.cpu.icache.ReadReq_mshr_misses::.cpu.inst         3163                       # number of ReadReq MSHR misses
system.cpu.icache.ReadReq_mshr_misses::total         3163                       # number of ReadReq MSHR misses
system.cpu.icache.ReadReq_mshr_miss_latency::.cpu.inst    146311999                       # number of ReadReq MSHR miss cycles
system.cpu.icache.ReadReq_mshr_miss_latency::total    146311999                       # number of ReadReq MSHR miss cycles
system.cpu.icache.ReadReq_mshr_miss_rate::.cpu.inst     0.011956                       # mshr miss rate for ReadReq accesses
system.cpu.icache.ReadReq_mshr_miss_rate::total     0.011956                       # mshr miss rate for ReadReq accesses
system.cpu.icache.ReadReq_avg_mshr_miss_latency::.cpu.inst 46257.350300                       # average ReadReq mshr miss latency
system.cpu.icache.ReadReq_avg_mshr_miss_latency::total 46257.350300                       # average ReadReq mshr miss latency
system.cpu.icache.prefetcher.pwrStateResidencyTicks::UNDEFINED   1137353200                       # Cumulative time (in ticks) in various power states
system.cpu.icache.tags.pwrStateResidencyTicks::UNDEFINED   1137353200                       # Cumulative time (in ticks) in various power states
system.cpu.icache.tags.tagsinuse           253.532642                       # Cycle average of tags in use
system.cpu.icache.tags.total_refs              243157                       # Total number of references to valid blocks.
system.cpu.icache.tags.sampled_refs              2907                       # Sample count of references to valid blocks.
system.cpu.icache.tags.avg_refs             83.645339                       # Average number of references to valid blocks.
system.cpu.icache.tags.warmup_cycle             66400                       # Cycle when the warmup percentage was hit.
system.cpu.icache.tags.occ_blocks::.cpu.inst   253.532642                       # Average occupied blocks per requestor
system.cpu.icache.tags.occ_percent::.cpu.inst     0.990362                       # Average percentage of cache occupancy
system.cpu.icache.tags.occ_percent::total     0.990362                       # Average percentage of cache occupancy
system.cpu.icache.tags.occ_task_id_blocks::1024          256                       # Occupied blocks per task id
system.cpu.icache.tags.age_task_id_blocks_1024::0           97                       # Occupied blocks per task id
system.cpu.icache.tags.age_task_id_blocks_1024::1          122                       # Occupied blocks per task id
system.cpu.icache.tags.age_task_id_blocks_1024::2           37                       # Occupied blocks per task id
system.cpu.icache.tags.occ_task_id_percent::1024            1                       # Percentage of cache occupancy per task id
system.cpu.icache.tags.tag_accesses            532261                       # Number of tag accesses
system.cpu.icache.tags.data_accesses           532261                       # Number of data accesses
system.cpu.dtb.walker.pwrStateResidencyTicks::UNDEFINED   1137353200                       # Cumulative time (in ticks) in various power states
system.cpu.interrupts.clk_domain.clock           6400                       # Clock period in ticks
system.cpu.itb.walker.pwrStateResidencyTicks::UNDEFINED   1137353200                       # Cumulative time (in ticks) in various power states
system.cpu.dcache.pwrStateResidencyTicks::UNDEFINED   1137353200                       # Cumulative time (in ticks) in various power states
system.cpu.dcache.demand_hits::.cpu.data       719472                       # number of demand (read+write) hits
system.cpu.dcache.demand_hits::total           719472                       # number of demand (read+write) hits
system.cpu.dcache.overall_hits::.cpu.data       719472                       # number of overall hits
system.cpu.dcache.overall_hits::total          719472                       # number of overall hits
system.cpu.dcache.demand_misses::.cpu.data        34377                       # number of demand (read+write) misses
system.cpu.dcache.demand_misses::total          34377                       # number of demand (read+write) misses
system.cpu.dcache.overall_misses::.cpu.data        34377                       # number of overall misses
system.cpu.dcache.overall_misses::total         34377                       # number of overall misses
system.cpu.dcache.demand_miss_latency::.cpu.data   1672503199                       # number of demand (read+write) miss cycles
system.cpu.dcache.demand_miss_latency::total   1672503199                       # number of demand (read+write) miss cycles
system.cpu.dcache.overall_miss_latency::.cpu.data   1672503199                       # number of overall miss cycles
system.cpu.dcache.overall_miss_latency::total   1672503199                       # number of overall miss cycles
system.cpu.dcache.demand_accesses::.cpu.data       753849                       # number of demand (read+write) accesses
system.cpu.dcache.demand_accesses::total       753849                       # number of demand (read+write) accesses
system.cpu.dcache.overall_accesses::.cpu.data       753849                       # number of overall (read+write) accesses
system.cpu.dcache.overall_accesses::total       753849                       # number of overall (read+write) accesses
system.cpu.dcache.demand_miss_rate::.cpu.data     0.045602                       # miss rate for demand accesses
system.cpu.dcache.demand_miss_rate::total     0.045602                       # miss rate for demand accesses
system.cpu.dcache.overall_miss_rate::.cpu.data     0.045602                       # miss rate for overall accesses
system.cpu.dcache.overall_miss_rate::total     0.045602                       # miss rate for overall accesses
system.cpu.dcache.demand_avg_miss_latency::.cpu.data 48651.807866                       # average overall miss latency
system.cpu.dcache.demand_avg_miss_latency::total 48651.807866                       # average overall miss latency
system.cpu.dcache.overall_avg_miss_latency::.cpu.data 48651.807866                       # average overall miss latency
system.cpu.dcache.overall_avg_miss_latency::total 48651.807866                       # average overall miss latency
system.cpu.dcache.blocked_cycles::no_mshrs        27693                       # number of cycles access was blocked
system.cpu.dcache.blocked_cycles::no_targets          175                       # number of cycles access was blocked
system.cpu.dcache.blocked::no_mshrs               709                       # number of cycles access was blocked
system.cpu.dcache.blocked::no_targets               3                       # number of cycles access was blocked
system.cpu.dcache.avg_blocked_cycles::no_mshrs    39.059238                       # average number of cycles each access was blocked
system.cpu.dcache.avg_blocked_cycles::no_targets    58.333333                       # average number of cycles each access was blocked
system.cpu.dcache.unused_prefetches              1718                       # number of HardPF blocks evicted w/o reference
system.cpu.dcache.writebacks::.writebacks         2779                       # number of writebacks
system.cpu.dcache.writebacks::total              2779                       # number of writebacks
system.cpu.dcache.demand_mshr_hits::.cpu.data        21899                       # number of demand (read+write) MSHR hits
system.cpu.dcache.demand_mshr_hits::total        21899                       # number of demand (read+write) MSHR hits
system.cpu.dcache.overall_mshr_hits::.cpu.data        21899                       # number of overall MSHR hits
system.cpu.dcache.overall_mshr_hits::total        21899                       # number of overall MSHR hits
system.cpu.dcache.demand_mshr_misses::.cpu.data        12478                       # number of demand (read+write) MSHR misses
system.cpu.dcache.demand_mshr_misses::total        12478                       # number of demand (read+write) MSHR misses
system.cpu.dcache.overall_mshr_misses::.cpu.data        12478                       # number of overall MSHR misses
system.cpu.dcache.overall_mshr_misses::.cpu.dcache.prefetcher         4367                       # number of overall MSHR misses
system.cpu.dcache.overall_mshr_misses::total        16845                       # number of overall MSHR misses
system.cpu.dcache.demand_mshr_miss_latency::.cpu.data    575385999                       # number of demand (read+write) MSHR miss cycles
system.cpu.dcache.demand_mshr_miss_latency::total    575385999                       # number of demand (read+write) MSHR miss cycles
system.cpu.dcache.overall_mshr_miss_latency::.cpu.data    575385999                       # number of overall MSHR miss cycles
system.cpu.dcache.overall_mshr_miss_latency::.cpu.dcache.prefetcher    251377726                       # number of overall MSHR miss cycles
system.cpu.dcache.overall_mshr_miss_latency::total    826763725                       # number of overall MSHR miss cycles
system.cpu.dcache.demand_mshr_miss_rate::.cpu.data     0.016552                       # mshr miss rate for demand accesses
system.cpu.dcache.demand_mshr_miss_rate::total     0.016552                       # mshr miss rate for demand accesses
system.cpu.dcache.overall_mshr_miss_rate::.cpu.data     0.016552                       # mshr miss rate for overall accesses
system.cpu.dcache.overall_mshr_miss_rate::.cpu.dcache.prefetcher          inf                       # mshr miss rate for overall accesses
system.cpu.dcache.overall_mshr_miss_rate::total     0.022345                       # mshr miss rate for overall accesses
system.cpu.dcache.demand_avg_mshr_miss_latency::.cpu.data 46112.037105                       # average overall mshr miss latency
system.cpu.dcache.demand_avg_mshr_miss_latency::total 46112.037105                       # average overall mshr miss latency
system.cpu.dcache.overall_avg_mshr_miss_latency::.cpu.data 46112.037105                       # average overall mshr miss latency
system.cpu.dcache.overall_avg_mshr_miss_latency::.cpu.dcache.prefetcher 57563.024044                       # average overall mshr miss latency
system.cpu.dcache.overall_avg_mshr_miss_latency::total 49080.660433                       # average overall mshr miss latency
system.cpu.dcache.replacements                  15819                       # number of replacements
system.cpu.dcache.ReadReq_hits::.cpu.data       530257                       # number of ReadReq hits
system.cpu.dcache.ReadReq_hits::total          530257                       # number of ReadReq hits
system.cpu.dcache.ReadReq_misses::.cpu.data        32223                       # number of ReadReq misses
system.cpu.dcache.ReadReq_misses::total         32223                       # number of ReadReq misses
system.cpu.dcache.ReadReq_miss_latency::.cpu.data   1562785600                       # number of ReadReq miss cycles
system.cpu.dcache.ReadReq_miss_latency::total   1562785600                       # number of ReadReq miss cycles
system.cpu.dcache.ReadReq_accesses::.cpu.data       562480                       # number of ReadReq accesses(hits+misses)
system.cpu.dcache.ReadReq_accesses::total       562480                       # number of ReadReq accesses(hits+misses)
system.cpu.dcache.ReadReq_miss_rate::.cpu.data     0.057287                       # miss rate for ReadReq accesses
system.cpu.dcache.ReadReq_miss_rate::total     0.057287                       # miss rate for ReadReq accesses
system.cpu.dcache.ReadReq_avg_miss_latency::.cpu.data 48499.072091                       # average ReadReq miss latency
system.cpu.dcache.ReadReq_avg_miss_latency::total 48499.072091                       # average ReadReq miss latency
system.cpu.dcache.ReadReq_mshr_hits::.cpu.data        21856                       # number of ReadReq MSHR hits
system.cpu.dcache.ReadReq_mshr_hits::total        21856                       # number of ReadReq MSHR hits
system.cpu.dcache.ReadReq_mshr_misses::.cpu.data        10367                       # number of ReadReq MSHR misses
system.cpu.dcache.ReadReq_mshr_misses::total        10367                       # number of ReadReq MSHR misses
system.cpu.dcache.ReadReq_mshr_miss_latency::.cpu.data    469108400                       # number of ReadReq MSHR miss cycles
system.cpu.dcache.ReadReq_mshr_miss_latency::total    469108400                       # number of ReadReq MSHR miss cycles
system.cpu.dcache.ReadReq_mshr_miss_rate::.cpu.data     0.018431                       # mshr miss rate for ReadReq accesses
system.cpu.dcache.ReadReq_mshr_miss_rate::total     0.018431                       # mshr miss rate for ReadReq accesses
system.cpu.dcache.ReadReq_avg_mshr_miss_latency::.cpu.data 45250.159159                       # average ReadReq mshr miss latency
system.cpu.dcache.ReadReq_avg_mshr_miss_latency::total 45250.159159                       # average ReadReq mshr miss latency
system.cpu.dcache.WriteReq_hits::.cpu.data       189215                       # number of WriteReq hits
system.cpu.dcache.WriteReq_hits::total         189215                       # number of WriteReq hits
system.cpu.dcache.WriteReq_misses::.cpu.data         2154                       # number of WriteReq misses
system.cpu.dcache.WriteReq_misses::total         2154                       # number of WriteReq misses
system.cpu.dcache.WriteReq_miss_latency::.cpu.data    109717599                       # number of WriteReq miss cycles
system.cpu.dcache.WriteReq_miss_latency::total    109717599                       # number of WriteReq miss cycles
system.cpu.dcache.WriteReq_accesses::.cpu.data       191369                       # number of WriteReq accesses(hits+misses)
system.cpu.dcache.WriteReq_accesses::total       191369                       # number of WriteReq accesses(hits+misses)
system.cpu.dcache.WriteReq_miss_rate::.cpu.data     0.011256                       # miss rate for WriteReq accesses
system.cpu.dcache.WriteReq_miss_rate::total     0.011256                       # miss rate for WriteReq accesses
system.cpu.dcache.WriteReq_avg_miss_latency::.cpu.data 50936.675487                       # average WriteReq miss latency
system.cpu.dcache.WriteReq_avg_miss_latency::total 50936.675487                       # average WriteReq miss latency
system.cpu.dcache.WriteReq_mshr_hits::.cpu.data           43                       # number of WriteReq MSHR hits
[...]
system.l2cache.demand_mshr_misses::.cpu.data          185                       # number of demand (read+write) MSHR misses
system.l2cache.demand_mshr_misses::.cpu.dcache.prefetcher           31                       # number of demand (read+write) MSHR misses
system.l2cache.demand_mshr_misses::total          474                       # number of demand (read+write) MSHR misses
system.l2cache.overall_mshr_misses::.cpu.inst          258                       # number of overall MSHR misses
system.l2cache.overall_mshr_misses::.cpu.data          185                       # number of overall MSHR misses
system.l2cache.overall_mshr_misses::.cpu.dcache.prefetcher           31                       # number of overall MSHR misses
system.l2cache.overall_mshr_misses::total          474                       # number of overall MSHR misses
system.l2cache.demand_mshr_miss_latency::.cpu.inst     15490800                       # number of demand (read+write) MSHR miss cycles
system.l2cache.demand_mshr_miss_latency::.cpu.data     10740800                       # number of demand (read+write) MSHR miss cycles
system.l2cache.demand_mshr_miss_latency::.cpu.dcache.prefetcher      1937968                       # number of demand (read+write) MSHR miss cycles
system.l2cache.demand_mshr_miss_latency::total     28169568                       # number of demand (read+write) MSHR miss cycles
system.l2cache.overall_mshr_miss_latency::.cpu.inst     15490800                       # number of overall MSHR miss cycles
system.l2cache.overall_mshr_miss_latency::.cpu.data     10740800                       # number of overall MSHR miss cycles
system.l2cache.overall_mshr_miss_latency::.cpu.dcache.prefetcher      1937968                       # number of overall MSHR miss cycles
system.l2cache.overall_mshr_miss_latency::total     28169568                       # number of overall MSHR miss cycles
system.l2cache.demand_mshr_miss_rate::.cpu.inst     0.316176                       # mshr miss rate for demand accesses
system.l2cache.demand_mshr_miss_rate::.cpu.data     0.576324                       # mshr miss rate for demand accesses
system.l2cache.demand_mshr_miss_rate::.cpu.dcache.prefetcher     0.861111                       # mshr miss rate for demand accesses
system.l2cache.demand_mshr_miss_rate::total     0.404092                       # mshr miss rate for demand accesses
system.l2cache.overall_mshr_miss_rate::.cpu.inst     0.316176                       # mshr miss rate for overall accesses
system.l2cache.overall_mshr_miss_rate::.cpu.data     0.576324                       # mshr miss rate for overall accesses
system.l2cache.overall_mshr_miss_rate::.cpu.dcache.prefetcher     0.861111                       # mshr miss rate for overall accesses
system.l2cache.overall_mshr_miss_rate::total     0.404092                       # mshr miss rate for overall accesses
system.l2cache.demand_avg_mshr_miss_latency::.cpu.inst 60041.860465                       # average overall mshr miss latency
system.l2cache.demand_avg_mshr_miss_latency::.cpu.data 58058.378378                       # average overall mshr miss latency
system.l2cache.demand_avg_mshr_miss_latency::.cpu.dcache.prefetcher 62515.096774                       # average overall mshr miss latency
system.l2cache.demand_avg_mshr_miss_latency::total 59429.468354                       # average overall mshr miss latency
system.l2cache.overall_avg_mshr_miss_latency::.cpu.inst 60041.860465                       # average overall mshr miss latency
system.l2cache.overall_avg_mshr_miss_latency::.cpu.data 58058.378378                       # average overall mshr miss latency
system.l2cache.overall_avg_mshr_miss_latency::.cpu.dcache.prefetcher 62515.096774                       # average overall mshr miss latency
system.l2cache.overall_avg_mshr_miss_latency::total 59429.468354                       # average overall mshr miss latency
system.l2cache.replacements                       486                       # number of replacements
system.l2cache.WritebackDirty_hits::.writebacks          115                       # number of WritebackDirty hits
system.l2cache.WritebackDirty_hits::total          115                       # number of WritebackDirty hits
system.l2cache.WritebackDirty_accesses::.writebacks          115                       # number of WritebackDirty accesses(hits+misses)
system.l2cache.WritebackDirty_accesses::total          115                       # number of WritebackDirty accesses(hits+misses)
system.l2cache.CleanEvict_mshr_misses::.writebacks           10                       # number of CleanEvict MSHR misses
system.l2cache.CleanEvict_mshr_misses::total           10                       # number of CleanEvict MSHR misses
system.l2cache.CleanEvict_mshr_miss_rate::.writebacks          inf                       # mshr miss rate for CleanEvict accesses
system.l2cache.CleanEvict_mshr_miss_rate::total          inf                       # mshr miss rate for CleanEvict accesses
system.l2cache.ReadExReq_hits::.cpu.data           12                       # number of ReadExReq hits
system.l2cache.ReadExReq_hits::total               12                       # number of ReadExReq hits
system.l2cache.ReadExReq_misses::.cpu.data           64                       # number of ReadExReq misses
system.l2cache.ReadExReq_misses::total             64                       # number of ReadExReq misses
system.l2cache.ReadExReq_miss_latency::.cpu.data      4204400                       # number of ReadExReq miss cycles
system.l2cache.ReadExReq_miss_latency::total      4204400                       # number of ReadExReq miss cycles
system.l2cache.ReadExReq_accesses::.cpu.data           76                       # number of ReadExReq accesses(hits+misses)
system.l2cache.ReadExReq_accesses::total           76                       # number of ReadExReq accesses(hits+misses)
system.l2cache.ReadExReq_miss_rate::.cpu.data     0.842105                       # miss rate for ReadExReq accesses
system.l2cache.ReadExReq_miss_rate::total     0.842105                       # miss rate for ReadExReq accesses
system.l2cache.ReadExReq_avg_miss_latency::.cpu.data 65693.750000                       # average ReadExReq miss latency
system.l2cache.ReadExReq_avg_miss_latency::total 65693.750000                       # average ReadExReq miss latency
system.l2cache.ReadExReq_mshr_misses::.cpu.data           64                       # number of ReadExReq MSHR misses
system.l2cache.ReadExReq_mshr_misses::total           64                       # number of ReadExReq MSHR misses
system.l2cache.ReadExReq_mshr_miss_latency::.cpu.data      3692400                       # number of ReadExReq MSHR miss cycles
system.l2cache.ReadExReq_mshr_miss_latency::total      3692400                       # number of ReadExReq MSHR miss cycles
system.l2cache.ReadExReq_mshr_miss_rate::.cpu.data     0.842105                       # mshr miss rate for ReadExReq accesses
system.l2cache.ReadExReq_mshr_miss_rate::total     0.842105                       # mshr miss rate for ReadExReq accesses
system.l2cache.ReadExReq_avg_mshr_miss_latency::.cpu.data 57693.750000                       # average ReadExReq mshr miss latency
system.l2cache.ReadExReq_avg_mshr_miss_latency::total 57693.750000                       # average ReadExReq mshr miss latency
system.l2cache.ReadSharedReq_hits::.cpu.inst          558                       # number of ReadSharedReq hits
system.l2cache.ReadSharedReq_hits::.cpu.data          124                       # number of ReadSharedReq hits
system.l2cache.ReadSharedReq_hits::.cpu.dcache.prefetcher            5                       # number of ReadSharedReq hits
system.l2cache.ReadSharedReq_hits::total          687                       # number of ReadSharedReq hits
system.l2cache.ReadSharedReq_misses::.cpu.inst          258                       # number of ReadSharedReq misses
system.l2cache.ReadSharedReq_misses::.cpu.data          121                       # number of ReadSharedReq misses
system.l2cache.ReadSharedReq_misses::.cpu.dcache.prefetcher           31                       # number of ReadSharedReq misses
system.l2cache.ReadSharedReq_misses::total          410                       # number of ReadSharedReq misses
system.l2cache.ReadSharedReq_miss_latency::.cpu.inst     17554800                       # number of ReadSharedReq miss cycles
system.l2cache.ReadSharedReq_miss_latency::.cpu.data      8016400                       # number of ReadSharedReq miss cycles
system.l2cache.ReadSharedReq_miss_latency::.cpu.dcache.prefetcher      2185968                       # number of ReadSharedReq miss cycles
system.l2cache.ReadSharedReq_miss_latency::total     27757168                       # number of ReadSharedReq miss cycles
system.l2cache.ReadSharedReq_accesses::.cpu.inst          816                       # number of ReadSharedReq accesses(hits+misses)
system.l2cache.ReadSharedReq_accesses::.cpu.data          245                       # number of ReadSharedReq accesses(hits+misses)
system.l2cache.ReadSharedReq_accesses::.cpu.dcache.prefetcher           36                       # number of ReadSharedReq accesses(hits+misses)
system.l2cache.ReadSharedReq_accesses::total         1097                       # number of ReadSharedReq accesses(hits+misses)
system.l2cache.ReadSharedReq_miss_rate::.cpu.inst     0.316176                       # miss rate for ReadSharedReq accesses
system.l2cache.ReadSharedReq_miss_rate::.cpu.data     0.493878                       # miss rate for ReadSharedReq accesses
system.l2cache.ReadSharedReq_miss_rate::.cpu.dcache.prefetcher     0.861111                       # miss rate for ReadSharedReq accesses
system.l2cache.ReadSharedReq_miss_rate::total     0.373747                       # miss rate for ReadSharedReq accesses
system.l2cache.ReadSharedReq_avg_miss_latency::.cpu.inst 68041.860465                       # average ReadSharedReq miss latency
system.l2cache.ReadSharedReq_avg_miss_latency::.cpu.data 66251.239669                       # average ReadSharedReq miss latency
system.l2cache.ReadSharedReq_avg_miss_latency::.cpu.dcache.prefetcher 70515.096774                       # average ReadSharedReq miss latency
system.l2cache.ReadSharedReq_avg_miss_latency::total 67700.409756                       # average ReadSharedReq miss latency
system.l2cache.ReadSharedReq_mshr_misses::.cpu.inst          258                       # number of ReadSharedReq MSHR misses
system.l2cache.ReadSharedReq_mshr_misses::.cpu.data          121                       # number of ReadSharedReq MSHR misses
system.l2cache.ReadSharedReq_mshr_misses::.cpu.dcache.prefetcher           31                       # number of ReadSharedReq MSHR misses
system.l2cache.ReadSharedReq_mshr_misses::total          410                       # number of ReadSharedReq MSHR misses
system.l2cache.ReadSharedReq_mshr_miss_latency::.cpu.inst     15490800                       # number of ReadSharedReq MSHR miss cycles
system.l2cache.ReadSharedReq_mshr_miss_latency::.cpu.data      7048400                       # number of ReadSharedReq MSHR miss cycles
system.l2cache.ReadSharedReq_mshr_miss_latency::.cpu.dcache.prefetcher      1937968                       # number of ReadSharedReq MSHR miss cycles
system.l2cache.ReadSharedReq_mshr_miss_latency::total     24477168                       # number of ReadSharedReq MSHR miss cycles
system.l2cache.ReadSharedReq_mshr_miss_rate::.cpu.inst     0.316176                       # mshr miss rate for ReadSharedReq accesses
system.l2cache.ReadSharedReq_mshr_miss_rate::.cpu.data     0.493878                       # mshr miss rate for ReadSharedReq accesses
system.l2cache.ReadSharedReq_mshr_miss_rate::.cpu.dcache.prefetcher     0.861111                       # mshr miss rate for ReadSharedReq accesses
system.l2cache.ReadSharedReq_mshr_miss_rate::total     0.373747                       # mshr miss rate for ReadSharedReq accesses
system.l2cache.ReadSharedReq_avg_mshr_miss_latency::.cpu.inst 60041.860465                       # average ReadSharedReq mshr miss latency
system.l2cache.ReadSharedReq_avg_mshr_miss_latency::.cpu.data 58251.239669                       # average ReadSharedReq mshr miss latency
system.l2cache.ReadSharedReq_avg_mshr_miss_latency::.cpu.dcache.prefetcher 62515.096774                       # average ReadSharedReq mshr miss latency
system.l2cache.ReadSharedReq_avg_mshr_miss_latency::total 59700.409756                       # average ReadSharedReq mshr miss latency
system.l2cache.prefetcher.pwrStateResidencyTicks::UNDEFINED     77998400                       # Cumulative time (in ticks) in various power states
system.l2cache.tags.pwrStateResidencyTicks::UNDEFINED     77998400                       # Cumulative time (in ticks) in various power states
system.l2cache.tags.tagsinuse                    4096                       # Cycle average of tags in use
system.l2cache.tags.total_refs                  15284                       # Total number of references to valid blocks.
system.l2cache.tags.sampled_refs                 4582                       # Sample count of references to valid blocks.
system.l2cache.tags.avg_refs                 3.335661                       # Average number of references to valid blocks.
system.l2cache.tags.warmup_cycle                    0                       # Cycle when the warmup percentage was hit.
system.l2cache.tags.occ_blocks::.writebacks    43.362746                       # Average occupied blocks per requestor
system.l2cache.tags.occ_blocks::.cpu.inst  1130.481817                       # Average occupied blocks per requestor
system.l2cache.tags.occ_blocks::.cpu.data  1823.602586                       # Average occupied blocks per requestor
system.l2cache.tags.occ_blocks::.cpu.dcache.prefetcher   991.800882                       # Average occupied blocks per requestor
system.l2cache.tags.occ_blocks::.l2cache.prefetcher   106.751969                       # Average occupied blocks per requestor
system.l2cache.tags.occ_percent::.writebacks     0.010587                       # Average percentage of cache occupancy
system.l2cache.tags.occ_percent::.cpu.inst     0.275997                       # Average percentage of cache occupancy
system.l2cache.tags.occ_percent::.cpu.data     0.445215                       # Average percentage of cache occupancy
system.l2cache.tags.occ_percent::.cpu.dcache.prefetcher     0.242139                       # Average percentage of cache occupancy
system.l2cache.tags.occ_percent::.l2cache.prefetcher     0.026062                       # Average percentage of cache occupancy
system.l2cache.tags.occ_percent::total              1                       # Average percentage of cache occupancy
system.l2cache.tags.occ_task_id_blocks::1022         1005                       # Occupied blocks per task id
system.l2cache.tags.occ_task_id_blocks::1024         3091                       # Occupied blocks per task id
system.l2cache.tags.age_task_id_blocks_1022::0            7                       # Occupied blocks per task id
system.l2cache.tags.age_task_id_blocks_1022::1           26                       # Occupied blocks per task id
system.l2cache.tags.age_task_id_blocks_1022::2          947                       # Occupied blocks per task id
system.l2cache.tags.age_task_id_blocks_1022::3           25                       # Occupied blocks per task id
system.l2cache.tags.age_task_id_blocks_1024::0          179                       # Occupied blocks per task id
system.l2cache.tags.age_task_id_blocks_1024::1          274                       # Occupied blocks per task id
system.l2cache.tags.age_task_id_blocks_1024::2         2452                       # Occupied blocks per task id
system.l2cache.tags.age_task_id_blocks_1024::3          186                       # Occupied blocks per task id
system.l2cache.tags.occ_task_id_percent::1022     0.245361                       # Percentage of cache occupancy per task id
system.l2cache.tags.occ_task_id_percent::1024     0.754639                       # Percentage of cache occupancy per task id
system.l2cache.tags.tag_accesses                19254                       # Number of tag accesses
system.l2cache.tags.data_accesses               19254                       # Number of data accesses
system.mem_ctrl.pwrStateResidencyTicks::UNDEFINED     77998400                       # Cumulative time (in ticks) in various power states
system.mem_ctrl.bytes_read::.cpu.inst           16512                       # Number of bytes read from this memory
system.mem_ctrl.bytes_read::.cpu.data           11840                       # Number of bytes read from this memory
system.mem_ctrl.bytes_read::.cpu.dcache.prefetcher         1984                       # Number of bytes read from this memory
system.mem_ctrl.bytes_read::total               30336                       # Number of bytes read from this memory
system.mem_ctrl.bytes_inst_read::.cpu.inst        16512                       # Number of instructions bytes read from this memory
system.mem_ctrl.bytes_inst_read::total          16512                       # Number of instructions bytes read from this memory
system.mem_ctrl.bytes_written::.writebacks         1664                       # Number of bytes written to this memory
system.mem_ctrl.bytes_written::total             1664                       # Number of bytes written to this memory
system.mem_ctrl.num_reads::.cpu.inst              258                       # Number of read requests responded to by this memory
system.mem_ctrl.num_reads::.cpu.data              185                       # Number of read requests responded to by this memory
system.mem_ctrl.num_reads::.cpu.dcache.prefetcher           31                       # Number of read requests responded to by this memory
system.mem_ctrl.num_reads::total                  474                       # Number of read requests responded to by this memory
system.mem_ctrl.num_writes::.writebacks            26                       # Number of write requests responded to by this memory
system.mem_ctrl.num_writes::total                  26                       # Number of write requests responded to by this memory
system.mem_ctrl.bw_read::.cpu.inst          211696650                       # Total read bandwidth from this memory (bytes/s)
system.mem_ctrl.bw_read::.cpu.data          151797986                       # Total read bandwidth from this memory (bytes/s)
system.mem_ctrl.bw_read::.cpu.dcache.prefetcher     25436419                       # Total read bandwidth from this memory (bytes/s)
system.mem_ctrl.bw_read::total              388931055                       # Total read bandwidth from this memory (bytes/s)
system.mem_ctrl.bw_inst_read::.cpu.inst     211696650                       # Instruction read bandwidth from this memory (bytes/s)
system.mem_ctrl.bw_inst_read::total         211696650                       # Instruction read bandwidth from this memory (bytes/s)
system.mem_ctrl.bw_write::.writebacks        21333771                       # Write bandwidth from this memory (bytes/s)
system.mem_ctrl.bw_write::total              21333771                       # Write bandwidth from this memory (bytes/s)
system.mem_ctrl.bw_total::.writebacks        21333771                       # Total bandwidth to/from this memory (bytes/s)
system.mem_ctrl.bw_total::.cpu.inst         211696650                       # Total bandwidth to/from this memory (bytes/s)
system.mem_ctrl.bw_total::.cpu.data         151797986                       # Total bandwidth to/from this memory (bytes/s)
system.mem_ctrl.bw_total::.cpu.dcache.prefetcher     25436419                       # Total bandwidth to/from this memory (bytes/s)
system.mem_ctrl.bw_total::total             410264826                       # Total bandwidth to/from this memory (bytes/s)

---------- End Simulation Statistics   ----------
