
---------- Begin Simulation Statistics ----------
final_tick                                 1149101200                       # Number of ticks from beginning of simulation (restored from checkpoints and never reset)
host_inst_rate                                 172706                       # Simulator instruction rate (inst/s)
host_mem_usage                                4408880                       # Number of bytes of host memory used
host_op_rate                                   303003                       # Simulator op (including micro ops) rate (op/s)
host_seconds                                    12.59                       # Real time elapsed on the host
host_tick_rate                               91252911                       # Simulator tick rate (ticks/s)
sim_freq                                 1000000000000                       # Frequency of simulated ticks
sim_insts                                     2174781                       # Number of instructions simulated
sim_ops                                       3815555                       # Number of ops (including micro ops) simulated
sim_seconds                                  0.001149                       # Number of seconds simulated
sim_ticks                                  1149101200                       # Number of ticks simulated
system.cpu.branchPred.BTBCorrect                    0                       # Number of correct BTB predictions (this stat may not work properly.
system.cpu.branchPred.BTBHitPct              0.000000                       # BTB Hit Percentage
system.cpu.branchPred.BTBHits                       0                       # Number of BTB hits
system.cpu.branchPred.BTBLookups               467891                       # Number of BTB lookups
system.cpu.branchPred.RASInCorrect                 21                       # Number of incorrect RAS predictions.
system.cpu.branchPred.condIncorrect             25399                       # Number of conditional branches incorrect
system.cpu.branchPred.condPredicted            490787                       # Number of conditional branches predicted
system.cpu.branchPred.indirectHits             252972                       # Number of indirect target hits.
system.cpu.branchPred.indirectLookups          467891                       # Number of indirect predictor lookups.
system.cpu.branchPred.indirectMisses           214919                       # Number of indirect misses.
system.cpu.branchPred.lookups                  523258                       # Number of BP lookups
system.cpu.branchPred.usedRAS                   14419                       # Number of times the RAS was used to get a target.
system.cpu.branchPredindirectMispredicted        13113                       # Number of mispredicted indirect branches.
system.cpu.cc_regfile_reads                   2473943                       # number of cc regfile reads
system.cpu.cc_regfile_writes                  1976388                       # number of cc regfile writes
system.cpu.commit.amos                              0                       # Number of atomic instructions committed
system.cpu.commit.branchMispredicts             25521                       # The number of times a branch was mispredicted
system.cpu.commit.branches                     374148                       # Number of branches committed
system.cpu.commit.bw_lim_events                638165                       # number cycles where commit BW limit reached
system.cpu.commit.commitNonSpecStalls             852                       # The number of times commit has been forced to stall to communicate backwards
system.cpu.commit.commitSquashedInsts          914215                       # The number of squashed insts skipped by commit
system.cpu.commit.committedInsts              2174781                       # Number of instructions committed
system.cpu.commit.committedOps                3815555                       # Number of ops (including micro ops) committed
system.cpu.commit.committed_per_cycle::samples      2453654                       # Number of insts commited each cycle
system.cpu.commit.committed_per_cycle::mean     1.555050                       # Number of insts commited each cycle
system.cpu.commit.committed_per_cycle::stdev     1.729249                       # Number of insts commited each cycle
system.cpu.commit.committed_per_cycle::underflows            0      0.00%      0.00% # Number of insts commited each cycle
system.cpu.commit.committed_per_cycle::0      1210448     49.33%     49.33% # Number of insts commited each cycle
system.cpu.commit.committed_per_cycle::1       187835      7.66%     56.99% # Number of insts commited each cycle
system.cpu.commit.committed_per_cycle::2       176558      7.20%     64.18% # Number of insts commited each cycle
system.cpu.commit.committed_per_cycle::3       240648      9.81%     73.99% # Number of insts commited each cycle
system.cpu.commit.committed_per_cycle::4       638165     26.01%    100.00% # Number of insts commited each cycle
system.cpu.commit.committed_per_cycle::overflows            0      0.00%    100.00% # Number of insts commited each cycle
system.cpu.commit.committed_per_cycle::min_value            0                       # Number of insts commited each cycle
system.cpu.commit.committed_per_cycle::max_value            4                       # Number of insts commited each cycle
system.cpu.commit.committed_per_cycle::total      2453654                       # Number of insts commited each cycle
system.cpu.commit.fp_insts                      75825                       # Number of committed floating point instructions.
system.cpu.commit.function_calls                12613                       # Number of function calls committed.
system.cpu.commit.int_insts                   3759456                       # Number of committed integer instructions.
system.cpu.commit.loads                        533654                       # Number of loads committed
system.cpu.commit.membars                           1                       # Number of memory barriers committed
system.cpu.commit.op_class_0::No_OpClass        20795      0.55%      0.55% # Class of committed instruction
system.cpu.commit.op_class_0::IntAlu          2989449     78.35%     78.89% # Class of committed instruction
system.cpu.commit.op_class_0::IntMult             429      0.01%     78.91% # Class of committed instruction
system.cpu.commit.op_class_0::IntDiv            38022      1.00%     79.90% # Class of committed instruction
system.cpu.commit.op_class_0::FloatAdd           2996      0.08%     79.98% # Class of committed instruction
system.cpu.commit.op_class_0::FloatCmp              0      0.00%     79.98% # Class of committed instruction
system.cpu.commit.op_class_0::FloatCvt           1376      0.04%     80.02% # Class of committed instruction
system.cpu.commit.op_class_0::FloatMult             0      0.00%     80.02% # Class of committed instruction
system.cpu.commit.op_class_0::FloatMultAcc            0      0.00%     80.02% # Class of committed instruction
system.cpu.commit.op_class_0::FloatDiv              0      0.00%     80.02% # Class of committed instruction
system.cpu.commit.op_class_0::FloatMisc             0      0.00%     80.02% # Class of committed instruction
system.cpu.commit.op_class_0::FloatSqrt             0      0.00%     80.02% # Class of committed instruction
system.cpu.commit.op_class_0::SimdAdd            6346      0.17%     80.18% # Class of committed instruction
system.cpu.commit.op_class_0::SimdAddAcc            0      0.00%     80.18% # Class of committed instruction
system.cpu.commit.op_class_0::SimdAlu           11415      0.30%     80.48% # Class of committed instruction
system.cpu.commit.op_class_0::SimdCmp               0      0.00%     80.48% # Class of committed instruction
system.cpu.commit.op_class_0::SimdCvt           12434      0.33%     80.81% # Class of committed instruction
system.cpu.commit.op_class_0::SimdMisc           6715      0.18%     80.98% # Class of committed instruction
system.cpu.commit.op_class_0::SimdMult              0      0.00%     80.98% # Class of committed instruction
system.cpu.commit.op_class_0::SimdMultAcc            0      0.00%     80.98% # Class of committed instruction
system.cpu.commit.op_class_0::SimdShift          1273      0.03%     81.02% # Class of committed instruction
system.cpu.commit.op_class_0::SimdShiftAcc            0      0.00%     81.02% # Class of committed instruction
system.cpu.commit.op_class_0::SimdDiv               0      0.00%     81.02% # Class of committed instruction
system.cpu.commit.op_class_0::SimdSqrt              0      0.00%     81.02% # Class of committed instruction
system.cpu.commit.op_class_0::SimdFloatAdd            0      0.00%     81.02% # Class of committed instruction
system.cpu.commit.op_class_0::SimdFloatAlu            0      0.00%     81.02% # Class of committed instruction
system.cpu.commit.op_class_0::SimdFloatCmp            0      0.00%     81.02% # Class of committed instruction
system.cpu.commit.op_class_0::SimdFloatCvt            0      0.00%     81.02% # Class of committed instruction
system.cpu.commit.op_class_0::SimdFloatDiv            0      0.00%     81.02% # Class of committed instruction
system.cpu.commit.op_class_0::SimdFloatMisc            0      0.00%     81.02% # Class of committed instruction
system.cpu.commit.op_class_0::SimdFloatMult            0      0.00%     81.02% # Class of committed instruction
system.cpu.commit.op_class_0::SimdFloatMultAcc            0      0.00%     81.02% # Class of committed instruction
system.cpu.commit.op_class_0::SimdFloatSqrt            0      0.00%     81.02% # Class of committed instruction
system.cpu.commit.op_class_0::SimdReduceAdd            0      0.00%     81.02% # Class of committed instruction
system.cpu.commit.op_class_0::SimdReduceAlu            0      0.00%     81.02% # Class of committed instruction
system.cpu.commit.op_class_0::SimdReduceCmp            0      0.00%     81.02% # Class of committed instruction
system.cpu.commit.op_class_0::SimdFloatReduceAdd            0      0.00%     81.02% # Class of committed instruction
system.cpu.commit.op_class_0::SimdFloatReduceCmp            0      0.00%     81.02% # Class of committed instruction
system.cpu.commit.op_class_0::SimdAes               0      0.00%     81.02% # Class of committed instruction
system.cpu.commit.op_class_0::SimdAesMix            0      0.00%     81.02% # Class of committed instruction
system.cpu.commit.op_class_0::SimdSha1Hash            0      0.00%     81.02% # Class of committed instruction
system.cpu.commit.op_class_0::SimdSha1Hash2            0      0.00%     81.02% # Class of committed instruction
system.cpu.commit.op_class_0::SimdSha256Hash            0      0.00%     81.02% # Class of committed instruction
system.cpu.commit.op_class_0::SimdSha256Hash2            0      0.00%     81.02% # Class of committed instruction
system.cpu.commit.op_class_0::SimdShaSigma2            0      0.00%     81.02% # Class of committed instruction
system.cpu.commit.op_class_0::SimdShaSigma3            0      0.00%     81.02% # Class of committed instruction
system.cpu.commit.op_class_0::SimdPredAlu            0      0.00%     81.02% # Class of committed instruction
system.cpu.commit.op_class_0::MemRead          513766     13.47%     94.48% # Class of committed instruction
system.cpu.commit.op_class_0::MemWrite         178152      4.67%     99.15% # Class of committed instruction
system.cpu.commit.op_class_0::FloatMemRead        19888      0.52%     99.67% # Class of committed instruction
system.cpu.commit.op_class_0::FloatMemWrite        12499      0.33%    100.00% # Class of committed instruction
system.cpu.commit.op_class_0::IprAccess             0      0.00%    100.00% # Class of committed instruction
system.cpu.commit.op_class_0::InstPrefetch            0      0.00%    100.00% # Class of committed instruction
system.cpu.commit.op_class_0::total           3815555                       # Class of committed instruction
system.cpu.commit.refs                         724305                       # Number of memory references committed
system.cpu.commit.swp_count                         0                       # Number of s/w prefetches committed
system.cpu.commit.vec_insts                         0                       # Number of committed Vector instructions.
system.cpu.committedInsts                     2174781                       # Number of Instructions Simulated
system.cpu.committedOps                       3815555                       # Number of Ops (including micro ops) Simulated
system.cpu.cpi                               1.320939                       # CPI: Cycles Per Instruction
system.cpu.cpi_total                         1.320939                       # CPI: Total CPI of All Threads
system.cpu.dcache.prefetcher.num_hwpf_issued         8227                       # number of hwpf issued
system.cpu.dcache.prefetcher.pfBufferHit        33003                       # number of redundant prefetches already in prefetch queue
system.cpu.dcache.prefetcher.pfIdentified        48495                       # number of prefetch candidates identified
system.cpu.dcache.prefetcher.pfInCache              0                       # number of redundant prefetches already in cache/mshr dropped
system.cpu.dcache.prefetcher.pfRemovedFull            0                       # number of prefetches dropped due to prefetch queue size
system.cpu.dcache.prefetcher.pfSpanPage          4593                       # number of prefetches that crossed the page
system.cpu.decode.BlockedCycles               1037874                       # Number of cycles decode is blocked
system.cpu.decode.DecodedInsts                4953553                       # Number of instructions handled by decode
system.cpu.decode.IdleCycles                   338018                       # Number of cycles decode is idle
system.cpu.decode.RunCycles                   1213389                       # Number of cycles decode is running
system.cpu.decode.SquashCycles                  25586                       # Number of cycles decode is squashing
system.cpu.decode.UnblockCycles                 88092                       # Number of cycles decode is unblocking
system.cpu.dtb.rdAccesses                      619039                       # TLB accesses on read requests
system.cpu.dtb.rdMisses                          2114                       # TLB misses on read requests
system.cpu.dtb.wrAccesses                      210624                       # TLB accesses on write requests
system.cpu.dtb.wrMisses                           155                       # TLB misses on write requests
system.cpu.fetch.Branches                      523258                       # Number of branches that fetch encountered
system.cpu.fetch.CacheLines                    262055                       # Number of cache lines fetched
system.cpu.fetch.Cycles                       2300738                       # Number of cycles fetch has run and was not squashing or blocked
system.cpu.fetch.IcacheSquashes                  5330                       # Number of outstanding Icache misses that were squashed
system.cpu.fetch.IcacheWaitRetryStallCycles           10                       # Number of stall cycles due to full MSHR
system.cpu.fetch.Insts                        2959377                       # Number of instructions fetch has processed
system.cpu.fetch.MiscStallCycles                  145                       # Number of cycles fetch has spent waiting on interrupts, or bad addresses, or out of MSHRs
system.cpu.fetch.PendingQuiesceStallCycles           16                       # Number of stall cycles due to pending quiesce instructions
system.cpu.fetch.PendingTrapStallCycles           869                       # Number of stall cycles due to pending traps
system.cpu.fetch.SquashCycles                   51172                       # Number of cycles fetch has spent squashing
system.cpu.fetch.branchRate                  0.182145                       # Number of branch fetches per cycle
system.cpu.fetch.icacheStallCycles             375595                       # Number of cycles fetch is stalled on an Icache miss
system.cpu.fetch.predictedBranches             267391                       # Number of branches that fetch has predicted taken
system.cpu.fetch.rate                        1.030153                       # Number of inst fetches per cycle
system.cpu.fetch.rateDist::samples            2702959                       # Number of instructions fetched each cycle (Total)
system.cpu.fetch.rateDist::mean              1.936113                       # Number of instructions fetched each cycle (Total)
system.cpu.fetch.rateDist::stdev             1.928186                       # Number of instructions fetched each cycle (Total)
system.cpu.fetch.rateDist::underflows               0      0.00%      0.00% # Number of instructions fetched each cycle (Total)
system.cpu.fetch.rateDist::0                  1281500     47.41%     47.41% # Number of instructions fetched each cycle (Total)
system.cpu.fetch.rateDist::1                    79578      2.94%     50.36% # Number of instructions fetched each cycle (Total)
system.cpu.fetch.rateDist::2                    64433      2.38%     52.74% # Number of instructions fetched each cycle (Total)
system.cpu.fetch.rateDist::3                    85003      3.14%     55.88% # Number of instructions fetched each cycle (Total)
system.cpu.fetch.rateDist::4                  1192445     44.12%    100.00% # Number of instructions fetched each cycle (Total)
system.cpu.fetch.rateDist::overflows                0      0.00%    100.00% # Number of instructions fetched each cycle (Total)
system.cpu.fetch.rateDist::min_value                0                       # Number of instructions fetched each cycle (Total)
system.cpu.fetch.rateDist::max_value                4                       # Number of instructions fetched each cycle (Total)
system.cpu.fetch.rateDist::total              2702959                       # Number of instructions fetched each cycle (Total)
system.cpu.fp_regfile_reads                    124198                       # number of floating regfile reads
system.cpu.fp_regfile_writes                    68529                       # number of floating regfile writes
system.cpu.fuPool.fu_ticks_busy::IntALU(0)    228784400                       # Total ticks fu was busy
system.cpu.fuPool.fu_ticks_busy::IntALU(1)    228784000                       # Total ticks fu was busy
system.cpu.fuPool.fu_ticks_busy::IntALU(2)    228784000                       # Total ticks fu was busy
system.cpu.fuPool.fu_ticks_busy::IntALU(3)    228784000                       # Total ticks fu was busy
system.cpu.fuPool.fu_ticks_busy::IntALU(4)    228784000                       # Total ticks fu was busy
system.cpu.fuPool.fu_ticks_busy::IntALU(5)    228784000                       # Total ticks fu was busy
system.cpu.fuPool.fu_ticks_busy::IntMultDiv(0)      8498000                       # Total ticks fu was busy
system.cpu.fuPool.fu_ticks_busy::IntMultDiv(1)      8497600                       # Total ticks fu was busy
system.cpu.fuPool.fu_ticks_busy::FP_ALU(0)       605200                       # Total ticks fu was busy
system.cpu.fuPool.fu_ticks_busy::FP_ALU(1)       604800                       # Total ticks fu was busy
system.cpu.fuPool.fu_ticks_busy::FP_ALU(2)       604400                       # Total ticks fu was busy
system.cpu.fuPool.fu_ticks_busy::FP_ALU(3)       604400                       # Total ticks fu was busy
system.cpu.fuPool.fu_ticks_busy::FP_MultDiv(0)            0                       # Total ticks fu was busy
system.cpu.fuPool.fu_ticks_busy::FP_MultDiv(1)            0                       # Total ticks fu was busy
system.cpu.fuPool.fu_ticks_busy::SIMD_Unit(0)      4542400                       # Total ticks fu was busy
system.cpu.fuPool.fu_ticks_busy::SIMD_Unit(1)      4649200                       # Total ticks fu was busy
system.cpu.fuPool.fu_ticks_busy::SIMD_Unit(2)      4758400                       # Total ticks fu was busy
system.cpu.fuPool.fu_ticks_busy::SIMD_Unit(3)      4650000                       # Total ticks fu was busy
system.cpu.fuPool.fu_ticks_busy::PredALU(0)            0                       # Total ticks fu was busy
system.cpu.fuPool.fu_ticks_busy::RdWrPort(0)     84560800                       # Total ticks fu was busy
system.cpu.fuPool.fu_ticks_busy::RdWrPort(1)     84480000                       # Total ticks fu was busy
system.cpu.fuPool.fu_ticks_busy::RdWrPort(2)     84523200                       # Total ticks fu was busy
system.cpu.fuPool.fu_ticks_busy::RdWrPort(3)     84513600                       # Total ticks fu was busy
system.cpu.fuPool.fu_ticks_busy::IprPort(0)            0                       # Total ticks fu was busy
system.cpu.fuPool.fu_ticks_busy::total     1748796400                       # Total ticks fu was busy
system.cpu.icache.prefetcher.num_hwpf_issued            0                       # number of hwpf issued
system.cpu.icache.prefetcher.pfBufferHit            0                       # number of redundant prefetches already in prefetch queue
system.cpu.icache.prefetcher.pfIdentified            0                       # number of prefetch candidates identified
system.cpu.icache.prefetcher.pfInCache              0                       # number of redundant prefetches already in cache/mshr dropped
system.cpu.icache.prefetcher.pfRemovedFull            0                       # number of prefetches dropped due to prefetch queue size
system.cpu.icache.prefetcher.pfSpanPage             0                       # number of prefetches that crossed the page
system.cpu.idleCycles                          169795                       # Total number of cycles that the CPU has spent unscheduled due to idling
system.cpu.iew.branchMispredicts                29975                       # Number of branch mispredicts detected at execute
system.cpu.iew.exec_branches                   405122                       # Number of branches executed
system.cpu.iew.exec_nop                             0                       # number of nop insts executed
system.cpu.iew.exec_rate                     1.518533                       # Inst execution rate
system.cpu.iew.exec_refs                       831327                       # number of memory reference insts executed
system.cpu.iew.exec_stores                     210609                       # Number of stores executed
system.cpu.iew.exec_swp                             0                       # number of swp insts executed
system.cpu.iew.iewBlockCycles                  710283                       # Number of cycles IEW is blocking
system.cpu.iew.iewDispLoadInsts                653539                       # Number of dispatched load instructions
system.cpu.iew.iewDispNonSpecInsts               1329                       # Number of dispatched non-speculative instructions
system.cpu.iew.iewDispSquashedInsts               536                       # Number of squashed instructions skipped by dispatch
system.cpu.iew.iewDispStoreInsts               222397                       # Number of dispatched store instructions
system.cpu.iew.iewDispatchedInsts             4729708                       # Number of instructions dispatched to IQ
system.cpu.iew.iewExecLoadInsts                620718                       # Number of load instructions executed
system.cpu.iew.iewExecSquashedInsts             36992                       # Number of squashed instructions skipped in execute
system.cpu.iew.iewExecutedInsts               4362373                       # Number of executed instructions
system.cpu.iew.iewIQFullEvents                   3364                       # Number of times the IQ has become full, causing a stall
system.cpu.iew.iewIdleCycles                        0                       # Number of cycles IEW is idle
system.cpu.iew.iewLSQFullEvents                  9133                       # Number of times the LSQ has become full, causing a stall
system.cpu.iew.iewSquashCycles                  25586                       # Number of cycles IEW is squashing
system.cpu.iew.iewUnblockCycles                 15428                       # Number of cycles IEW is unblocking
system.cpu.iew.lsq.thread0.blockedLoads             0                       # Number of blocked loads due to partial load-store forwarding
system.cpu.iew.lsq.thread0.cacheBlocked           584                       # Number of times an access to memory failed due to the cache being blocked
system.cpu.iew.lsq.thread0.forwLoads            40626                       # Number of loads that had data forwarded from stores
system.cpu.iew.lsq.thread0.ignoredResponses          238                       # Number of memory responses ignored because the instruction is squashed
system.cpu.iew.lsq.thread0.invAddrLoads             0                       # Number of loads ignored due to an invalid address
system.cpu.iew.lsq.thread0.invAddrSwpfs             0                       # Number of software prefetches ignored due to an invalid address
system.cpu.iew.lsq.thread0.memOrderViolation           76                       # Number of memory ordering violations
system.cpu.iew.lsq.thread0.rescheduledLoads            0                       # Number of loads that were rescheduled
system.cpu.iew.lsq.thread0.squashedLoads       119883                       # Number of loads squashed
system.cpu.iew.lsq.thread0.squashedStores        31745                       # Number of stores squashed
system.cpu.iew.memOrderViolationEvents             76                       # Number of memory order violations
system.cpu.iew.predictedNotTakenIncorrect        21648                       # Number of branches that were predicted not taken incorrectly
system.cpu.iew.predictedTakenIncorrect           8327                       # Number of branches that were predicted taken incorrectly
system.cpu.iew.wb_consumers                   6003677                       # num instructions consuming a value
system.cpu.iew.wb_count                       4339367                       # cumulative count of insts written-back
system.cpu.iew.wb_fanout                     0.571448                       # average fanout of values written-back
system.cpu.iew.wb_producers                   3430792                       # num instructions producing a value
system.cpu.iew.wb_rate                       1.510525                       # insts written-back per cycle
system.cpu.iew.wb_sent                        4346740                       # cumulative count of insts sent to commit
system.cpu.int_regfile_reads                  6749914                       # number of integer regfile reads
system.cpu.int_regfile_writes                 3731011                       # number of integer regfile writes
system.cpu.ipc                               0.757037                       # IPC: Instructions Per Cycle
system.cpu.ipc_total                         0.757037                       # IPC: Total IPC of All Threads
system.cpu.iq.FU_type_0::No_OpClass             27374      0.62%      0.62% # Type of FU issued
system.cpu.iq.FU_type_0::IntAlu               3431762     78.01%     78.63% # Type of FU issued
system.cpu.iq.FU_type_0::IntMult                  454      0.01%     78.64% # Type of FU issued
system.cpu.iq.FU_type_0::IntDiv                 42035      0.96%     79.59% # Type of FU issued
system.cpu.iq.FU_type_0::FloatAdd                4617      0.10%     79.70% # Type of FU issued
system.cpu.iq.FU_type_0::FloatCmp                   0      0.00%     79.70% # Type of FU issued
system.cpu.iq.FU_type_0::FloatCvt                1430      0.03%     79.73% # Type of FU issued
system.cpu.iq.FU_type_0::FloatMult                  0      0.00%     79.73% # Type of FU issued
system.cpu.iq.FU_type_0::FloatMultAcc               0      0.00%     79.73% # Type of FU issued
system.cpu.iq.FU_type_0::FloatDiv                   0      0.00%     79.73% # Type of FU issued
system.cpu.iq.FU_type_0::FloatMisc                  0      0.00%     79.73% # Type of FU issued
system.cpu.iq.FU_type_0::FloatSqrt                  0      0.00%     79.73% # Type of FU issued
system.cpu.iq.FU_type_0::SimdAdd                 7045      0.16%     79.89% # Type of FU issued
system.cpu.iq.FU_type_0::SimdAddAcc                 0      0.00%     79.89% # Type of FU issued
system.cpu.iq.FU_type_0::SimdAlu                15329      0.35%     80.24% # Type of FU issued
system.cpu.iq.FU_type_0::SimdCmp                    0      0.00%     80.24% # Type of FU issued
system.cpu.iq.FU_type_0::SimdCvt                14341      0.33%     80.57% # Type of FU issued
system.cpu.iq.FU_type_0::SimdMisc                7356      0.17%     80.73% # Type of FU issued
system.cpu.iq.FU_type_0::SimdMult                   0      0.00%     80.73% # Type of FU issued
system.cpu.iq.FU_type_0::SimdMultAcc                0      0.00%     80.73% # Type of FU issued
system.cpu.iq.FU_type_0::SimdShift               2429      0.06%     80.79% # Type of FU issued
system.cpu.iq.FU_type_0::SimdShiftAcc               0      0.00%     80.79% # Type of FU issued
system.cpu.iq.FU_type_0::SimdDiv                    0      0.00%     80.79% # Type of FU issued
system.cpu.iq.FU_type_0::SimdSqrt                   0      0.00%     80.79% # Type of FU issued
system.cpu.iq.FU_type_0::SimdFloatAdd               0      0.00%     80.79% # Type of FU issued
system.cpu.iq.FU_type_0::SimdFloatAlu               0      0.00%     80.79% # Type of FU issued
system.cpu.iq.FU_type_0::SimdFloatCmp               0      0.00%     80.79% # Type of FU issued
system.cpu.iq.FU_type_0::SimdFloatCvt               0      0.00%     80.79% # Type of FU issued
system.cpu.iq.FU_type_0::SimdFloatDiv               0      0.00%     80.79% # Type of FU issued
system.cpu.iq.FU_type_0::SimdFloatMisc              0      0.00%     80.79% # Type of FU issued
system.cpu.iq.FU_type_0::SimdFloatMult              0      0.00%     80.79% # Type of FU issued
system.cpu.iq.FU_type_0::SimdFloatMultAcc            0      0.00%     80.79% # Type of FU issued
system.cpu.iq.FU_type_0::SimdFloatSqrt              0      0.00%     80.79% # Type of FU issued
system.cpu.iq.FU_type_0::SimdReduceAdd              0      0.00%     80.79% # Type of FU issued
system.cpu.iq.FU_type_0::SimdReduceAlu              0      0.00%     80.79% # Type of FU issued
system.cpu.iq.FU_type_0::SimdReduceCmp              0      0.00%     80.79% # Type of FU issued
system.cpu.iq.FU_type_0::SimdFloatReduceAdd            0      0.00%     80.79% # Type of FU issued
system.cpu.iq.FU_type_0::SimdFloatReduceCmp            0      0.00%     80.79% # Type of FU issued
system.cpu.iq.FU_type_0::SimdAes                    0      0.00%     80.79% # Type of FU issued
system.cpu.iq.FU_type_0::SimdAesMix                 0      0.00%     80.79% # Type of FU issued
system.cpu.iq.FU_type_0::SimdSha1Hash               0      0.00%     80.79% # Type of FU issued
system.cpu.iq.FU_type_0::SimdSha1Hash2              0      0.00%     80.79% # Type of FU issued
system.cpu.iq.FU_type_0::SimdSha256Hash             0      0.00%     80.79% # Type of FU issued
system.cpu.iq.FU_type_0::SimdSha256Hash2            0      0.00%     80.79% # Type of FU issued
system.cpu.iq.FU_type_0::SimdShaSigma2              0      0.00%     80.79% # Type of FU issued
system.cpu.iq.FU_type_0::SimdShaSigma3              0      0.00%     80.79% # Type of FU issued
system.cpu.iq.FU_type_0::SimdPredAlu                0      0.00%     80.79% # Type of FU issued
system.cpu.iq.FU_type_0::MemRead               605578     13.77%     94.55% # Type of FU issued
system.cpu.iq.FU_type_0::MemWrite              199606      4.54%     99.09% # Type of FU issued
system.cpu.iq.FU_type_0::FloatMemRead           26150      0.59%     99.68% # Type of FU issued
system.cpu.iq.FU_type_0::FloatMemWrite          13862      0.32%    100.00% # Type of FU issued
system.cpu.iq.FU_type_0::IprAccess                  0      0.00%    100.00% # Type of FU issued
system.cpu.iq.FU_type_0::InstPrefetch               0      0.00%    100.00% # Type of FU issued
system.cpu.iq.FU_type_0::total                4399368                       # Type of FU issued
system.cpu.iq.fp_alu_accesses                   93627                       # Number of floating point alu accesses
system.cpu.iq.fp_inst_queue_reads              188631                       # Number of floating instruction queue reads
system.cpu.iq.fp_inst_queue_wakeup_accesses        90075                       # Number of floating instruction queue wakeup accesses
system.cpu.iq.fp_inst_queue_writes             137489                       # Number of floating instruction queue writes
system.cpu.iq.fu_busy_cnt                           0                       # FU busy when requested
system.cpu.iq.fu_busy_rate                          0                       # FU busy rate (busy events/executed inst)
system.cpu.iq.fu_full::No_OpClass                   0                       # attempts to use FU when none available
system.cpu.iq.fu_full::IntAlu                       0                       # attempts to use FU when none available
system.cpu.iq.fu_full::IntMult                      0                       # attempts to use FU when none available
system.cpu.iq.fu_full::IntDiv                       0                       # attempts to use FU when none available
system.cpu.iq.fu_full::FloatAdd                     0                       # attempts to use FU when none available
system.cpu.iq.fu_full::FloatCmp                     0                       # attempts to use FU when none available
system.cpu.iq.fu_full::FloatCvt                     0                       # attempts to use FU when none available
system.cpu.iq.fu_full::FloatMult                    0                       # attempts to use FU when none available
system.cpu.iq.fu_full::FloatMultAcc                 0                       # attempts to use FU when none available
system.cpu.iq.fu_full::FloatDiv                     0                       # attempts to use FU when none available
system.cpu.iq.fu_full::FloatMisc                    0                       # attempts to use FU when none available
system.cpu.iq.fu_full::FloatSqrt                    0                       # attempts to use FU when none available
system.cpu.iq.fu_full::SimdAdd                      0                       # attempts to use FU when none available
system.cpu.iq.fu_full::SimdAddAcc                   0                       # attempts to use FU when none available
system.cpu.iq.fu_full::SimdAlu                      0                       # attempts to use FU when none available
system.cpu.iq.fu_full::SimdCmp                      0                       # attempts to use FU when none available
system.cpu.iq.fu_full::SimdCvt                      0                       # attempts to use FU when none available
system.cpu.iq.fu_full::SimdMisc                     0                       # attempts to use FU when none available
system.cpu.iq.fu_full::SimdMult                     0                       # attempts to use FU when none available
system.cpu.iq.fu_full::SimdMultAcc                  0                       # attempts to use FU when none available
system.cpu.iq.fu_full::SimdShift                    0                       # attempts to use FU when none available
system.cpu.iq.fu_full::SimdShiftAcc                 0                       # attempts to use FU when none available
system.cpu.iq.fu_full::SimdDiv                      0                       # attempts to use FU when none available
system.cpu.iq.fu_full::SimdSqrt                     0                       # attempts to use FU when none available
system.cpu.iq.fu_full::SimdFloatAdd                 0                       # attempts to use FU when none available
system.cpu.iq.fu_full::SimdFloatAlu                 0                       # attempts to use FU when none available
system.cpu.iq.fu_full::SimdFloatCmp                 0                       # attempts to use FU when none available
system.cpu.iq.fu_full::SimdFloatCvt                 0                       # attempts to use FU when none available
system.cpu.iq.fu_full::SimdFloatDiv                 0                       # attempts to use FU when none available
system.cpu.iq.fu_full::SimdFloatMisc                0                       # attempts to use FU when none available
system.cpu.iq.fu_full::SimdFloatMult                0                       # attempts to use FU when none available
system.cpu.iq.fu_full::SimdFloatMultAcc             0                       # attempts to use FU when none available
system.cpu.iq.fu_full::SimdFloatSqrt                0                       # attempts to use FU when none available
system.cpu.iq.fu_full::SimdReduceAdd                0                       # attempts to use FU when none available
system.cpu.iq.fu_full::SimdReduceAlu                0                       # attempts to use FU when none available
system.cpu.iq.fu_full::SimdReduceCmp                0                       # attempts to use FU when none available
system.cpu.iq.fu_full::SimdFloatReduceAdd            0                       # attempts to use FU when none available
system.cpu.iq.fu_full::SimdFloatReduceCmp            0                       # attempts to use FU when none available
system.cpu.iq.fu_full::SimdAes                      0                       # attempts to use FU when none available
system.cpu.iq.fu_full::SimdAesMix                   0                       # attempts to use FU when none available
system.cpu.iq.fu_full::SimdSha1Hash                 0                       # attempts to use FU when none available
system.cpu.iq.fu_full::SimdSha1Hash2                0                       # attempts to use FU when none available
system.cpu.iq.fu_full::SimdSha256Hash               0                       # attempts to use FU when none available
system.cpu.iq.fu_full::SimdSha256Hash2              0                       # attempts to use FU when none available
system.cpu.iq.fu_full::SimdShaSigma2                0                       # attempts to use FU when none available
system.cpu.iq.fu_full::SimdShaSigma3                0                       # attempts to use FU when none available
system.cpu.iq.fu_full::SimdPredAlu                  0                       # attempts to use FU when none available
system.cpu.iq.fu_full::MemRead                      0                       # attempts to use FU when none available
system.cpu.iq.fu_full::MemWrite                     0                       # attempts to use FU when none available
system.cpu.iq.fu_full::FloatMemRead                 0                       # attempts to use FU when none available
system.cpu.iq.fu_full::FloatMemWrite                0                       # attempts to use FU when none available
system.cpu.iq.fu_full::IprAccess                    0                       # attempts to use FU when none available
system.cpu.iq.fu_full::InstPrefetch                 0                       # attempts to use FU when none available
system.cpu.iq.int_alu_accesses                4278367                       # Number of integer alu accesses
system.cpu.iq.int_inst_queue_reads           11331876                       # Number of integer instruction queue reads
system.cpu.iq.int_inst_queue_wakeup_accesses      4249292                       # Number of integer instruction queue wakeup accesses
system.cpu.iq.int_inst_queue_writes           5506435                       # Number of integer instruction queue writes
system.cpu.iq.iqInstsAdded                    4727650                       # Number of instructions added to the IQ (excludes non-spec)
system.cpu.iq.iqInstsIssued                   4399368                       # Number of instructions issued
system.cpu.iq.iqNonSpecInstsAdded                2058                       # Number of non-speculative instructions added to the IQ
system.cpu.iq.iqSquashedInstsExamined          914142                       # Number of squashed instructions iterated over during squash; mainly for profiling
system.cpu.iq.iqSquashedInstsIssued             18815                       # Number of squashed instructions issued
system.cpu.iq.iqSquashedNonSpecRemoved           1206                       # Number of squashed non-spec instructions that were removed
system.cpu.iq.iqSquashedOperandsExamined      1366348                       # Number of squashed operands that are examined and possibly removed from graph
system.cpu.iq.issued_per_cycle::samples       2702959                       # Number of insts issued each cycle
system.cpu.iq.issued_per_cycle::mean         1.627612                       # Number of insts issued each cycle
system.cpu.iq.issued_per_cycle::stdev        1.669434                       # Number of insts issued each cycle
system.cpu.iq.issued_per_cycle::underflows            0      0.00%      0.00% # Number of insts issued each cycle
system.cpu.iq.issued_per_cycle::0             1216044     44.99%     44.99% # Number of insts issued each cycle
system.cpu.iq.issued_per_cycle::1              183965      6.81%     51.80% # Number of insts issued each cycle
system.cpu.iq.issued_per_cycle::2              318625     11.79%     63.58% # Number of insts issued each cycle
system.cpu.iq.issued_per_cycle::3              359147     13.29%     76.87% # Number of insts issued each cycle
system.cpu.iq.issued_per_cycle::4              625178     23.13%    100.00% # Number of insts issued each cycle
system.cpu.iq.issued_per_cycle::overflows            0      0.00%    100.00% # Number of insts issued each cycle
system.cpu.iq.issued_per_cycle::min_value            0                       # Number of insts issued each cycle
system.cpu.iq.issued_per_cycle::max_value            4                       # Number of insts issued each cycle
system.cpu.iq.issued_per_cycle::total         2702959                       # Number of insts issued each cycle
system.cpu.iq.rate                           1.531411                       # Inst issue rate
system.cpu.iq.vec_alu_accesses                      0                       # Number of vector alu accesses
system.cpu.iq.vec_inst_queue_reads                  0                       # Number of vector instruction queue reads
system.cpu.iq.vec_inst_queue_wakeup_accesses            0                       # Number of vector instruction queue wakeup accesses
system.cpu.iq.vec_inst_queue_writes                 0                       # Number of vector instruction queue writes
system.cpu.itb.rdAccesses                           0                       # TLB accesses on read requests
system.cpu.itb.rdMisses                             0                       # TLB misses on read requests
system.cpu.itb.wrAccesses                      262198                       # TLB accesses on write requests
system.cpu.itb.wrMisses                           404                       # TLB misses on write requests
system.cpu.memDep0.conflictingLoads             11623                       # Number of conflicting loads.
system.cpu.memDep0.conflictingStores             5472                       # Number of conflicting stores.
system.cpu.memDep0.insertedLoads               653539                       # Number of loads inserted to the mem dependence unit.
system.cpu.memDep0.insertedStores              222397                       # Number of stores inserted to the mem dependence unit.
system.cpu.misc_regfile_reads                 1677187                       # number of misc regfile reads
system.cpu.misc_regfile_writes                    774                       # number of misc regfile writes
system.cpu.numCycles                          2872754                       # number of cpu cycles simulated
system.cpu.numWorkItemsCompleted                    0                       # number of work items this cpu completed
system.cpu.numWorkItemsStarted                      0                       # number of work items this cpu started
system.cpu.process.numSyscalls                     77                       # Number of system calls
system.cpu.rename.BlockCycles                  854551                       # Number of cycles rename is blocking
system.cpu.rename.CommittedMaps               5135918                       # Number of HB maps that are committed
system.cpu.rename.FullRegisterEvents               28                       # Number of times there has been no free registers
system.cpu.rename.IQFullEvents                  43934                       # Number of times rename has blocked due to IQ full
system.cpu.rename.IdleCycles                   388260                       # Number of cycles rename is idle
system.cpu.rename.LQFullEvents                  14399                       # Number of times rename has blocked due to LQ full
system.cpu.rename.ROBFullEvents                  4170                       # Number of times rename has blocked due to ROB full
system.cpu.rename.RenameLookups              12717386                       # Number of register rename lookups that rename has made
system.cpu.rename.RenamedInsts                4874787                       # Number of instructions processed by rename
system.cpu.rename.RenamedOperands             6564676                       # Number of destination operands rename has renamed
system.cpu.rename.RunCycles                   1243012                       # Number of cycles rename is running
system.cpu.rename.SQFullEvents                  74732                       # Number of times rename has blocked due to SQ full
system.cpu.rename.SquashCycles                  25586                       # Number of cycles rename is squashing
system.cpu.rename.UnblockCycles                169997                       # Number of cycles rename is unblocking
system.cpu.rename.UndoneMaps                  1428735                       # Number of HB maps that are undone due to squashing
system.cpu.rename.fp_rename_lookups            161455                       # Number of floating rename lookups
system.cpu.rename.int_rename_lookups          7723333                       # Number of integer rename lookups
system.cpu.rename.serializeStallCycles          21553                       # count of cycles rename stalled for serializing inst
system.cpu.rename.serializingInsts                999                       # count of serializing insts renamed
system.cpu.rename.skidInsts                    201188                       # count of insts added to the skid buffer
system.cpu.rename.tempSerializingInsts           1057                       # count of temporary serializing insts renamed
system.cpu.rob.rob_reads                      6545259                       # The number of ROB reads
system.cpu.rob.rob_writes                     9709807                       # The number of ROB writes
system.cpu.timesIdled                            2114                       # Number of times that the entire CPU went into an idle state and unscheduled itself
system.l2bus.snoop_filter.hit_multi_requests           24                       # Number of requests hitting in the snoop filter with multiple (>1) holders of the requested data.
system.l2bus.snoop_filter.hit_multi_snoops            1                       # Number of snoops hitting in the snoop filter with multiple (>1) holders of the requested data.
system.l2bus.snoop_filter.hit_single_requests        19713                       # Number of requests hitting in the snoop filter with a single holder of the requested data.
system.l2bus.snoop_filter.hit_single_snoops          437                       # Number of snoops hitting in the snoop filter with a single holder of the requested data.
system.l2bus.snoop_filter.tot_requests          40702                       # Total number of requests made to the snoop filter.
system.l2bus.snoop_filter.tot_snoops              438                       # Total number of snoops made to the snoop filter.
system.l2cache.prefetcher.num_hwpf_issued          651                       # number of hwpf issued
system.l2cache.prefetcher.pfBufferHit               0                       # number of redundant prefetches already in prefetch queue
system.l2cache.prefetcher.pfIdentified            651                       # number of prefetch candidates identified
system.l2cache.prefetcher.pfInCache                 0                       # number of redundant prefetches already in cache/mshr dropped
system.l2cache.prefetcher.pfRemovedFull             0                       # number of prefetches dropped due to prefetch queue size
system.l2cache.prefetcher.pfSpanPage              109                       # number of prefetches that crossed the page
system.membus.snoop_filter.hit_multi_requests            0                       # Number of requests hitting in the snoop filter with multiple (>1) holders of the requested data.
system.membus.snoop_filter.hit_multi_snoops            0                       # Number of snoops hitting in the snoop filter with multiple (>1) holders of the requested data.
system.membus.snoop_filter.hit_single_requests         9540                       # Number of requests hitting in the snoop filter with a single holder of the requested data.
system.membus.snoop_filter.hit_single_snoops            0                       # Number of snoops hitting in the snoop filter with a single holder of the requested data.
system.membus.snoop_filter.tot_requests         23202                       # Total number of requests made to the snoop filter.
system.membus.snoop_filter.tot_snoops               0                       # Total number of snoops made to the snoop filter.
system.membus.pwrStateResidencyTicks::UNDEFINED   1149101200                       # Cumulative time (in ticks) in various power states
system.membus.trans_dist::ReadResp              12351                       # Transaction distribution
system.membus.trans_dist::WritebackDirty         1353                       # Transaction distribution
system.membus.trans_dist::CleanEvict             8187                       # Transaction distribution
system.membus.trans_dist::ReadExReq              1311                       # Transaction distribution
system.membus.trans_dist::ReadExResp             1311                       # Transaction distribution
system.membus.trans_dist::ReadSharedReq         12351                       # Transaction distribution
system.membus.pkt_count_system.l2cache.mem_side::system.mem_ctrl.port        36864                       # Packet count per connected master and slave (bytes)
system.membus.pkt_count_system.l2cache.mem_side::total        36864                       # Packet count per connected master and slave (bytes)
system.membus.pkt_count::total                  36864                       # Packet count per connected master and slave (bytes)
system.membus.pkt_size_system.l2cache.mem_side::system.mem_ctrl.port       960960                       # Cumulative packet size per connected master and slave (bytes)
system.membus.pkt_size_system.l2cache.mem_side::total       960960                       # Cumulative packet size per connected master and slave (bytes)
system.membus.pkt_size::total                  960960                       # Cumulative packet size per connected master and slave (bytes)
system.membus.snoops                                0                       # Total snoops (count)
system.membus.snoopTraffic                          0                       # Total snoop traffic (bytes)
system.membus.snoop_fanout::samples             13662                       # Request fanout histogram
system.membus.snoop_fanout::mean                    0                       # Request fanout histogram
system.membus.snoop_fanout::stdev                   0                       # Request fanout histogram
system.membus.snoop_fanout::underflows              0      0.00%      0.00% # Request fanout histogram
system.membus.snoop_fanout::0                   13662    100.00%    100.00% # Request fanout histogram
system.membus.snoop_fanout::1                       0      0.00%    100.00% # Request fanout histogram
system.membus.snoop_fanout::overflows               0      0.00%    100.00% # Request fanout histogram
system.membus.snoop_fanout::min_value               0                       # Request fanout histogram
system.membus.snoop_fanout::max_value               0                       # Request fanout histogram
system.membus.snoop_fanout::total               13662                       # Request fanout histogram
system.membus.reqLayer2.occupancy            11468181                       # Layer occupancy (ticks)
system.membus.reqLayer2.utilization               1.0                       # Layer utilization (%)
system.membus.respLayer0.occupancy           29672919                       # Layer occupancy (ticks)
system.membus.respLayer0.utilization              2.6                       # Layer utilization (%)
system.l2bus.pwrStateResidencyTicks::UNDEFINED   1149101200                       # Cumulative time (in ticks) in various power states
system.l2bus.trans_dist::ReadResp               18944                       # Transaction distribution
system.l2bus.trans_dist::WritebackDirty          4157                       # Transaction distribution
system.l2bus.trans_dist::CleanEvict             25182                       # Transaction distribution
system.l2bus.trans_dist::HardPFReq                920                       # Transaction distribution
system.l2bus.trans_dist::ReadExReq               2047                       # Transaction distribution
system.l2bus.trans_dist::ReadExResp              2047                       # Transaction distribution
system.l2bus.trans_dist::ReadSharedReq          18944                       # Transaction distribution
system.l2bus.pkt_count_system.cpu.icache.mem_side::system.l2cache.cpu_side        11359                       # Packet count per connected master and slave (bytes)
system.l2bus.pkt_count_system.cpu.dcache.mem_side::system.l2cache.cpu_side        50330                       # Packet count per connected master and slave (bytes)
system.l2bus.pkt_count::total                   61689                       # Packet count per connected master and slave (bytes)
system.l2bus.pkt_size_system.cpu.icache.mem_side::system.l2cache.cpu_side       247616                       # Cumulative packet size per connected master and slave (bytes)
system.l2bus.pkt_size_system.cpu.dcache.mem_side::system.l2cache.cpu_side      1275008                       # Cumulative packet size per connected master and slave (bytes)
system.l2bus.pkt_size::total                  1522624                       # Cumulative packet size per connected master and slave (bytes)
system.l2bus.snoops                             10552                       # Total snoops (count)
system.l2bus.snoopTraffic                       86848                       # Total snoop traffic (bytes)
system.l2bus.snoop_fanout::samples              31539                       # Request fanout histogram
system.l2bus.snoop_fanout::mean              0.014744                       # Request fanout histogram
system.l2bus.snoop_fanout::stdev             0.120790                       # Request fanout histogram
system.l2bus.snoop_fanout::underflows               0      0.00%      0.00% # Request fanout histogram
system.l2bus.snoop_fanout::0                    31075     98.53%     98.53% # Request fanout histogram
system.l2bus.snoop_fanout::1                      463      1.47%    100.00% # Request fanout histogram
system.l2bus.snoop_fanout::2                        1      0.00%    100.00% # Request fanout histogram
system.l2bus.snoop_fanout::overflows                0      0.00%    100.00% # Request fanout histogram
system.l2bus.snoop_fanout::min_value                0                       # Request fanout histogram
system.l2bus.snoop_fanout::max_value                2                       # Request fanout histogram
system.l2bus.snoop_fanout::total                31539                       # Request fanout histogram
system.l2bus.respLayer1.occupancy            20542398                       # Layer occupancy (ticks)
system.l2bus.respLayer1.utilization               1.8                       # Layer utilization (%)
system.l2bus.reqLayer0.occupancy             19985021                       # Layer occupancy (ticks)
system.l2bus.reqLayer0.utilization                1.7                       # Layer utilization (%)
system.l2bus.respLayer0.occupancy             4647999                       # Layer occupancy (ticks)
system.l2bus.respLayer0.utilization               0.4                       # Layer utilization (%)
system.clk_domain.clock                           400                       # Clock period in ticks
system.clk_domain.voltage_domain.voltage            1                       # Voltage in Volts
system.cpu.pwrStateResidencyTicks::ON      1149101200                       # Cumulative time (in ticks) in various power states
system.cpu.icache.pwrStateResidencyTicks::UNDEFINED   1149101200                       # Cumulative time (in ticks) in various power states
system.cpu.icache.demand_hits::.cpu.inst       257432                       # number of demand (read+write) hits
system.cpu.icache.demand_hits::total           257432                       # number of demand (read+write) hits
system.cpu.icache.overall_hits::.cpu.inst       257432                       # number of overall hits
system.cpu.icache.overall_hits::total          257432                       # number of overall hits
system.cpu.icache.demand_misses::.cpu.inst         4622                       # number of demand (read+write) misses
system.cpu.icache.demand_misses::total           4622                       # number of demand (read+write) misses
system.cpu.icache.overall_misses::.cpu.inst         4622                       # number of overall misses
system.cpu.icache.overall_misses::total          4622                       # number of overall misses
system.cpu.icache.demand_miss_latency::.cpu.inst    193607600                       # number of demand (read+write) miss cycles
system.cpu.icache.demand_miss_latency::total    193607600                       # number of demand (read+write) miss cycles
system.cpu.icache.overall_miss_latency::.cpu.inst    193607600                       # number of overall miss cycles
system.cpu.icache.overall_miss_latency::total    193607600                       # number of overall miss cycles
system.cpu.icache.demand_accesses::.cpu.inst       262054                       # number of demand (read+write) accesses
system.cpu.icache.demand_accesses::total       262054                       # number of demand (read+write) accesses
system.cpu.icache.overall_accesses::.cpu.inst       262054                       # number of overall (read+write) accesses
system.cpu.icache.overall_accesses::total       262054                       # number of overall (read+write) accesses
system.cpu.icache.demand_miss_rate::.cpu.inst     0.017638                       # miss rate for demand accesses
system.cpu.icache.demand_miss_rate::total     0.017638                       # miss rate for demand accesses
system.cpu.icache.overall_miss_rate::.cpu.inst     0.017638                       # miss rate for overall accesses
system.cpu.icache.overall_miss_rate::total     0.017638                       # miss rate for overall accesses
system.cpu.icache.demand_avg_miss_latency::.cpu.inst 41888.273475                       # average overall miss latency
system.cpu.icache.demand_avg_miss_latency::total 41888.273475                       # average overall miss latency
system.cpu.icache.overall_avg_miss_latency::.cpu.inst 41888.273475                       # average overall miss latency
system.cpu.icache.overall_avg_miss_latency::total 41888.273475                       # average overall miss latency
system.cpu.icache.blocked_cycles::no_mshrs          169                       # number of cycles access was blocked
system.cpu.icache.blocked_cycles::no_targets            0                       # number of cycles access was blocked
system.cpu.icache.blocked::no_mshrs                 5                       # number of cycles access was blocked
system.cpu.icache.blocked::no_targets               0                       # number of cycles access was blocked
system.cpu.icache.avg_blocked_cycles::no_mshrs    33.800000                       # average number of cycles each access was blocked
system.cpu.icache.avg_blocked_cycles::no_targets          nan                       # average number of cycles each access was blocked
system.cpu.icache.demand_mshr_hits::.cpu.inst          749                       # number of demand (read+write) MSHR hits
system.cpu.icache.demand_mshr_hits::total          749                       # number of demand (read+write) MSHR hits
system.cpu.icache.overall_mshr_hits::.cpu.inst          749                       # number of overall MSHR hits
system.cpu.icache.overall_mshr_hits::total          749                       # number of overall MSHR hits
system.cpu.icache.demand_mshr_misses::.cpu.inst         3873                       # number of demand (read+write) MSHR misses
system.cpu.icache.demand_mshr_misses::total         3873                       # number of demand (read+write) MSHR misses
system.cpu.icache.overall_mshr_misses::.cpu.inst         3873                       # number of overall MSHR misses
system.cpu.icache.overall_mshr_misses::total         3873                       # number of overall MSHR misses
system.cpu.icache.demand_mshr_miss_latency::.cpu.inst    156966000                       # number of demand (read+write) MSHR miss cycles
system.cpu.icache.demand_mshr_miss_latency::total    156966000                       # number of demand (read+write) MSHR miss cycles
system.cpu.icache.overall_mshr_miss_latency::.cpu.inst    156966000                       # number of overall MSHR miss cycles
system.cpu.icache.overall_mshr_miss_latency::total    156966000                       # number of overall MSHR miss cycles
system.cpu.icache.demand_mshr_miss_rate::.cpu.inst     0.014779                       # mshr miss rate for demand accesses
system.cpu.icache.demand_mshr_miss_rate::total     0.014779                       # mshr miss rate for demand accesses
system.cpu.icache.overall_mshr_miss_rate::.cpu.inst     0.014779                       # mshr miss rate for overall accesses
system.cpu.icache.overall_mshr_miss_rate::total     0.014779                       # mshr miss rate for overall accesses
system.cpu.icache.demand_avg_mshr_miss_latency::.cpu.inst 40528.272657                       # average overall mshr miss latency
system.cpu.icache.demand_avg_mshr_miss_latency::total 40528.272657                       # average overall mshr miss latency
system.cpu.icache.overall_avg_mshr_miss_latency::.cpu.inst 40528.272657                       # average overall mshr miss latency
system.cpu.icache.overall_avg_mshr_miss_latency::total 40528.272657                       # average overall mshr miss latency
system.cpu.icache.replacements                   3617                       # number of replacements
system.cpu.icache.ReadReq_hits::.cpu.inst       257432                       # number of ReadReq hits
system.cpu.icache.ReadReq_hits::total          257432                       # number of ReadReq hits
system.cpu.icache.ReadReq_misses::.cpu.inst         4622                       # number of ReadReq misses
system.cpu.icache.ReadReq_misses::total          4622                       # number of ReadReq misses
system.cpu.icache.ReadReq_miss_latency::.cpu.inst    193607600                       # number of ReadReq miss cycles
system.cpu.icache.ReadReq_miss_latency::total    193607600                       # number of ReadReq miss cycles
system.cpu.icache.ReadReq_accesses::.cpu.inst       262054                       # number of ReadReq accesses(hits+misses)
system.cpu.icache.ReadReq_accesses::total       262054                       # number of ReadReq accesses(hits+misses)
system.cpu.icache.ReadReq_miss_rate::.cpu.inst     0.017638                       # miss rate for ReadReq accesses
system.cpu.icache.ReadReq_miss_rate::total     0.017638                       # miss rate for ReadReq accesses
system.cpu.icache.ReadReq_avg_miss_latency::.cpu.inst 41888.273475                       # average ReadReq miss latency
system.cpu.icache.ReadReq_avg_miss_latency::total 41888.273475                       # average ReadReq miss latency
system.cpu.icache.ReadReq_mshr_hits::.cpu.inst          749                       # number of ReadReq MSHR hits
system.cpu.icache.ReadReq_mshr_hits::total          749                       # number of ReadReq MSHR hits
system.cpu.icache.ReadReq_mshr_misses::.cpu.inst         3873                       # number of ReadReq MSHR misses
system.cpu.icache.ReadReq_mshr_misses::total         3873                       # number of ReadReq MSHR misses
system.cpu.icache.ReadReq_mshr_miss_latency::.cpu.inst    156966000                       # number of ReadReq MSHR miss cycles
system.cpu.icache.ReadReq_mshr_miss_latency::total    156966000                       # number of ReadReq MSHR miss cycles
system.cpu.icache.ReadReq_mshr_miss_rate::.cpu.inst     0.014779                       # mshr miss rate for ReadReq accesses
system.cpu.icache.ReadReq_mshr_miss_rate::total     0.014779                       # mshr miss rate for ReadReq accesses
system.cpu.icache.ReadReq_avg_mshr_miss_latency::.cpu.inst 40528.272657                       # average ReadReq mshr miss latency
system.cpu.icache.ReadReq_avg_mshr_miss_latency::total 40528.272657                       # average ReadReq mshr miss latency
system.cpu.icache.prefetcher.pwrStateResidencyTicks::UNDEFINED   1149101200                       # Cumulative time (in ticks) in various power states
system.cpu.icache.tags.pwrStateResidencyTicks::UNDEFINED   1149101200                       # Cumulative time (in ticks) in various power states
system.cpu.icache.tags.tagsinuse           253.611212                       # Cycle average of tags in use
system.cpu.icache.tags.total_refs              236776                       # Total number of references to valid blocks.
system.cpu.icache.tags.sampled_refs              3617                       # Sample count of references to valid blocks.
system.cpu.icache.tags.avg_refs             65.461985                       # Average number of references to valid blocks.
system.cpu.icache.tags.warmup_cycle             66400                       # Cycle when the warmup percentage was hit.
system.cpu.icache.tags.occ_blocks::.cpu.inst   253.611212                       # Average occupied blocks per requestor
system.cpu.icache.tags.occ_percent::.cpu.inst     0.990669                       # Average percentage of cache occupancy
system.cpu.icache.tags.occ_percent::total     0.990669                       # Average percentage of cache occupancy
system.cpu.icache.tags.occ_task_id_blocks::1024          256                       # Occupied blocks per task id
system.cpu.icache.tags.age_task_id_blocks_1024::0           79                       # Occupied blocks per task id
system.cpu.icache.tags.age_task_id_blocks_1024::1          140                       # Occupied blocks per task id
system.cpu.icache.tags.age_task_id_blocks_1024::2           33                       # Occupied blocks per task id
system.cpu.icache.tags.age_task_id_blocks_1024::3            4                       # Occupied blocks per task id
system.cpu.icache.tags.occ_task_id_percent::1024            1                       # Percentage of cache occupancy per task id
system.cpu.icache.tags.tag_accesses            527981                       # Number of tag accesses
system.cpu.icache.tags.data_accesses           527981                       # Number of data accesses
system.cpu.dtb.walker.pwrStateResidencyTicks::UNDEFINED   1149101200                       # Cumulative time (in ticks) in various power states
system.cpu.interrupts.clk_domain.clock           6400                       # Clock period in ticks
system.cpu.itb.walker.pwrStateResidencyTicks::UNDEFINED   1149101200                       # Cumulative time (in ticks) in various power states
system.cpu.dcache.pwrStateResidencyTicks::UNDEFINED   1149101200                       # Cumulative time (in ticks) in various power states
system.cpu.dcache.demand_hits::.cpu.data       732736                       # number of demand (read+write) hits
system.cpu.dcache.demand_hits::total           732736                       # number of demand (read+write) hits
system.cpu.dcache.overall_hits::.cpu.data       732736                       # number of overall hits
system.cpu.dcache.overall_hits::total          732736                       # number of overall hits
system.cpu.dcache.demand_misses::.cpu.data        35191                       # number of demand (read+write) misses
system.cpu.dcache.demand_misses::total          35191                       # number of demand (read+write) misses
system.cpu.dcache.overall_misses::.cpu.data        35191                       # number of overall misses
system.cpu.dcache.overall_misses::total         35191                       # number of overall misses
system.cpu.dcache.demand_miss_latency::.cpu.data   1706113200                       # number of demand (read+write) miss cycles
system.cpu.dcache.demand_miss_latency::total   1706113200                       # number of demand (read+write) miss cycles
system.cpu.dcache.overall_miss_latency::.cpu.data   1706113200                       # number of overall miss cycles
system.cpu.dcache.overall_miss_latency::total   1706113200                       # number of overall miss cycles
system.cpu.dcache.demand_accesses::.cpu.data       767927                       # number of demand (read+write) accesses
system.cpu.dcache.demand_accesses::total       767927                       # number of demand (read+write) accesses
system.cpu.dcache.overall_accesses::.cpu.data       767927                       # number of overall (read+write) accesses
system.cpu.dcache.overall_accesses::total       767927                       # number of overall (read+write) accesses
system.cpu.dcache.demand_miss_rate::.cpu.data     0.045826                       # miss rate for demand accesses
system.cpu.dcache.demand_miss_rate::total     0.045826                       # miss rate for demand accesses
system.cpu.dcache.overall_miss_rate::.cpu.data     0.045826                       # miss rate for overall accesses
system.cpu.dcache.overall_miss_rate::total     0.045826                       # miss rate for overall accesses
system.cpu.dcache.demand_avg_miss_latency::.cpu.data 48481.520843                       # average overall miss latency
system.cpu.dcache.demand_avg_miss_latency::total 48481.520843                       # average overall miss latency
system.cpu.dcache.overall_avg_miss_latency::.cpu.data 48481.520843                       # average overall miss latency
system.cpu.dcache.overall_avg_miss_latency::total 48481.520843                       # average overall miss latency
system.cpu.dcache.blocked_cycles::no_mshrs        28593                       # number of cycles access was blocked
system.cpu.dcache.blocked_cycles::no_targets          169                       # number of cycles access was blocked
system.cpu.dcache.blocked::no_mshrs               734                       # number of cycles access was blocked
system.cpu.dcache.blocked::no_targets               2                       # number of cycles access was blocked
system.cpu.dcache.avg_blocked_cycles::no_mshrs    38.955041                       # average number of cycles each access was blocked
system.cpu.dcache.avg_blocked_cycles::no_targets    84.500000                       # average number of cycles each access was blocked
system.cpu.dcache.unused_prefetches              1881                       # number of HardPF blocks evicted w/o reference
system.cpu.dcache.writebacks::.writebacks         2804                       # number of writebacks
system.cpu.dcache.writebacks::total              2804                       # number of writebacks
system.cpu.dcache.demand_mshr_hits::.cpu.data        22530                       # number of demand (read+write) MSHR hits
system.cpu.dcache.demand_mshr_hits::total        22530                       # number of demand (read+write) MSHR hits
system.cpu.dcache.overall_mshr_hits::.cpu.data        22530                       # number of overall MSHR hits
system.cpu.dcache.overall_mshr_hits::total        22530                       # number of overall MSHR hits
system.cpu.dcache.demand_mshr_misses::.cpu.data        12661                       # number of demand (read+write) MSHR misses
system.cpu.dcache.demand_mshr_misses::total        12661                       # number of demand (read+write) MSHR misses
system.cpu.dcache.overall_mshr_misses::.cpu.data        12661                       # number of overall MSHR misses
system.cpu.dcache.overall_mshr_misses::.cpu.dcache.prefetcher         4457                       # number of overall MSHR misses
system.cpu.dcache.overall_mshr_misses::total        17118                       # number of overall MSHR misses
system.cpu.dcache.demand_mshr_miss_latency::.cpu.data    580626400                       # number of demand (read+write) MSHR miss cycles
system.cpu.dcache.demand_mshr_miss_latency::total    580626400                       # number of demand (read+write) MSHR miss cycles
system.cpu.dcache.overall_mshr_miss_latency::.cpu.data    580626400                       # number of overall MSHR miss cycles
system.cpu.dcache.overall_mshr_miss_latency::.cpu.dcache.prefetcher    253268872                       # number of overall MSHR miss cycles
system.cpu.dcache.overall_mshr_miss_latency::total    833895272                       # number of overall MSHR miss cycles
system.cpu.dcache.demand_mshr_miss_rate::.cpu.data     0.016487                       # mshr miss rate for demand accesses
system.cpu.dcache.demand_mshr_miss_rate::total     0.016487                       # mshr miss rate for demand accesses
system.cpu.dcache.overall_mshr_miss_rate::.cpu.data     0.016487                       # mshr miss rate for overall accesses
system.cpu.dcache.overall_mshr_miss_rate::.cpu.dcache.prefetcher          inf                       # mshr miss rate for overall accesses
system.cpu.dcache.overall_mshr_miss_rate::total     0.022291                       # mshr miss rate for overall accesses
system.cpu.dcache.demand_avg_mshr_miss_latency::.cpu.data 45859.442382                       # average overall mshr miss latency
system.cpu.dcache.demand_avg_mshr_miss_latency::total 45859.442382                       # average overall mshr miss latency
system.cpu.dcache.overall_avg_mshr_miss_latency::.cpu.data 45859.442382                       # average overall mshr miss latency
system.cpu.dcache.overall_avg_mshr_miss_latency::.cpu.dcache.prefetcher 56824.965672                       # average overall mshr miss latency
system.cpu.dcache.overall_avg_mshr_miss_latency::total 48714.526931                       # average overall mshr miss latency
system.cpu.dcache.replacements                  16094                       # number of replacements
system.cpu.dcache.ReadReq_hits::.cpu.data       544156                       # number of ReadReq hits
system.cpu.dcache.ReadReq_hits::total          544156                       # number of ReadReq hits
system.cpu.dcache.ReadReq_misses::.cpu.data        33110                       # number of ReadReq misses
system.cpu.dcache.ReadReq_misses::total         33110                       # number of ReadReq misses
system.cpu.dcache.ReadReq_miss_latency::.cpu.data   1603388800                       # number of ReadReq miss cycles
system.cpu.dcache.ReadReq_miss_latency::total   1603388800                       # number of ReadReq miss cycles
system.cpu.dcache.ReadReq_accesses::.cpu.data       577266                       # number of ReadReq accesses(hits+misses)
system.cpu.dcache.ReadReq_accesses::total       577266                       # number of ReadReq accesses(hits+misses)
system.cpu.dcache.ReadReq_miss_rate::.cpu.data     0.057357                       # miss rate for ReadReq accesses
system.cpu.dcache.ReadReq_miss_rate::total     0.057357                       # miss rate for ReadReq accesses
system.cpu.dcache.ReadReq_avg_miss_latency::.cpu.data 48426.118997                       # average ReadReq miss latency
system.cpu.dcache.ReadReq_avg_miss_latency::total 48426.118997                       # average ReadReq miss latency
system.cpu.dcache.ReadReq_mshr_hits::.cpu.data        22495                       # number of ReadReq MSHR hits
system.cpu.dcache.ReadReq_mshr_hits::total        22495                       # number of ReadReq MSHR hits
system.cpu.dcache.ReadReq_mshr_misses::.cpu.data        10615                       # number of ReadReq MSHR misses
system.cpu.dcache.ReadReq_mshr_misses::total        10615                       # number of ReadReq MSHR misses
system.cpu.dcache.ReadReq_mshr_miss_latency::.cpu.data    480700000                       # number of ReadReq MSHR miss cycles
system.cpu.dcache.ReadReq_mshr_miss_latency::total    480700000                       # number of ReadReq MSHR miss cycles
system.cpu.dcache.ReadReq_mshr_miss_rate::.cpu.data     0.018388                       # mshr miss rate for ReadReq accesses
system.cpu.dcache.ReadReq_mshr_miss_rate::total     0.018388                       # mshr miss rate for ReadReq accesses
system.cpu.dcache.ReadReq_avg_mshr_miss_latency::.cpu.data 45284.974093                       # average ReadReq mshr miss latency
system.cpu.dcache.ReadReq_avg_mshr_miss_latency::total 45284.974093                       # average ReadReq mshr miss latency
system.cpu.dcache.WriteReq_hits::.cpu.data       188580                       # number of WriteReq hits
system.cpu.dcache.WriteReq_hits::total         188580                       # number of WriteReq hits
system.cpu.dcache.WriteReq_misses::.cpu.data         2081                       # number of WriteReq misses
system.cpu.dcache.WriteReq_misses::total         2081                       # number of WriteReq misses
system.cpu.dcache.WriteReq_miss_latency::.cpu.data    102724400                       # number of WriteReq miss cycles
system.cpu.dcache.WriteReq_miss_latency::total    102724400                       # number of WriteReq miss cycles
system.cpu.dcache.WriteReq_accesses::.cpu.data       190661                       # number of WriteReq accesses(hits+misses)
system.cpu.dcache.WriteReq_accesses::total       190661                       # number of WriteReq accesses(hits+misses)
system.cpu.dcache.WriteReq_miss_rate::.cpu.data     0.010915                       # miss rate for WriteReq accesses
system.cpu.dcache.WriteReq_miss_rate::total     0.010915                       # miss rate for WriteReq accesses
system.cpu.dcache.WriteReq_avg_miss_latency::.cpu.data 49362.998558                       # average WriteReq miss latency
system.cpu.dcache.WriteReq_avg_miss_latency::total 49362.998558                       # average WriteReq miss latency
system.cpu.dcache.WriteReq_mshr_hits::.cpu.data           35                       # number of WriteReq MSHR hits
system.cpu.dcache.WriteReq_mshr_hits::total           35                       # number of WriteReq MSHR hits
system.cpu.dcache.WriteReq_mshr_misses::.cpu.data         2046                       # number of WriteReq MSHR misses
system.cpu.dcache.WriteReq_mshr_misses::total         2046                       # number of WriteReq MSHR misses
[...]
system.l2cache.writebacks::total                   19                       # number of writebacks
system.l2cache.demand_mshr_misses::.cpu.inst          158                       # number of demand (read+write) MSHR misses
system.l2cache.demand_mshr_misses::.cpu.data           79                       # number of demand (read+write) MSHR misses
system.l2cache.demand_mshr_misses::.cpu.dcache.prefetcher           13                       # number of demand (read+write) MSHR misses
system.l2cache.demand_mshr_misses::total          250                       # number of demand (read+write) MSHR misses
system.l2cache.overall_mshr_misses::.cpu.inst          158                       # number of overall MSHR misses
system.l2cache.overall_mshr_misses::.cpu.data           79                       # number of overall MSHR misses
system.l2cache.overall_mshr_misses::.cpu.dcache.prefetcher           13                       # number of overall MSHR misses
system.l2cache.overall_mshr_misses::total          250                       # number of overall MSHR misses
system.l2cache.demand_mshr_miss_latency::.cpu.inst      9055200                       # number of demand (read+write) MSHR miss cycles
system.l2cache.demand_mshr_miss_latency::.cpu.data      4990400                       # number of demand (read+write) MSHR miss cycles
system.l2cache.demand_mshr_miss_latency::.cpu.dcache.prefetcher       753588                       # number of demand (read+write) MSHR miss cycles
system.l2cache.demand_mshr_miss_latency::total     14799188                       # number of demand (read+write) MSHR miss cycles
system.l2cache.overall_mshr_miss_latency::.cpu.inst      9055200                       # number of overall MSHR miss cycles
system.l2cache.overall_mshr_miss_latency::.cpu.data      4990400                       # number of overall MSHR miss cycles
system.l2cache.overall_mshr_miss_latency::.cpu.dcache.prefetcher       753588                       # number of overall MSHR miss cycles
system.l2cache.overall_mshr_miss_latency::total     14799188                       # number of overall MSHR miss cycles
system.l2cache.demand_mshr_miss_rate::.cpu.inst     0.128351                       # mshr miss rate for demand accesses
system.l2cache.demand_mshr_miss_rate::.cpu.data     0.526667                       # mshr miss rate for demand accesses
system.l2cache.demand_mshr_miss_rate::.cpu.dcache.prefetcher     0.684211                       # mshr miss rate for demand accesses
system.l2cache.demand_mshr_miss_rate::total     0.178571                       # mshr miss rate for demand accesses
system.l2cache.overall_mshr_miss_rate::.cpu.inst     0.128351                       # mshr miss rate for overall accesses
system.l2cache.overall_mshr_miss_rate::.cpu.data     0.526667                       # mshr miss rate for overall accesses
system.l2cache.overall_mshr_miss_rate::.cpu.dcache.prefetcher     0.684211                       # mshr miss rate for overall accesses
system.l2cache.overall_mshr_miss_rate::total     0.178571                       # mshr miss rate for overall accesses
system.l2cache.demand_avg_mshr_miss_latency::.cpu.inst 57311.392405                       # average overall mshr miss latency
system.l2cache.demand_avg_mshr_miss_latency::.cpu.data 63169.620253                       # average overall mshr miss latency
system.l2cache.demand_avg_mshr_miss_latency::.cpu.dcache.prefetcher 57968.307692                       # average overall mshr miss latency
system.l2cache.demand_avg_mshr_miss_latency::total 59196.752000                       # average overall mshr miss latency
system.l2cache.overall_avg_mshr_miss_latency::.cpu.inst 57311.392405                       # average overall mshr miss latency
system.l2cache.overall_avg_mshr_miss_latency::.cpu.data 63169.620253                       # average overall mshr miss latency
system.l2cache.overall_avg_mshr_miss_latency::.cpu.dcache.prefetcher 57968.307692                       # average overall mshr miss latency
system.l2cache.overall_avg_mshr_miss_latency::total 59196.752000                       # average overall mshr miss latency
system.l2cache.replacements                       254                       # number of replacements
system.l2cache.WritebackDirty_hits::.writebacks           42                       # number of WritebackDirty hits
system.l2cache.WritebackDirty_hits::total           42                       # number of WritebackDirty hits
system.l2cache.WritebackDirty_accesses::.writebacks           42                       # number of WritebackDirty accesses(hits+misses)
system.l2cache.WritebackDirty_accesses::total           42                       # number of WritebackDirty accesses(hits+misses)
system.l2cache.CleanEvict_mshr_misses::.writebacks            6                       # number of CleanEvict MSHR misses
system.l2cache.CleanEvict_mshr_misses::total            6                       # number of CleanEvict MSHR misses
system.l2cache.CleanEvict_mshr_miss_rate::.writebacks          inf                       # mshr miss rate for CleanEvict accesses
system.l2cache.CleanEvict_mshr_miss_rate::total          inf                       # mshr miss rate for CleanEvict accesses
system.l2cache.ReadExReq_hits::.cpu.data            4                       # number of ReadExReq hits
system.l2cache.ReadExReq_hits::total                4                       # number of ReadExReq hits
system.l2cache.ReadExReq_misses::.cpu.data            4                       # number of ReadExReq misses
system.l2cache.ReadExReq_misses::total              4                       # number of ReadExReq misses
system.l2cache.ReadExReq_miss_latency::.cpu.data       292400                       # number of ReadExReq miss cycles
system.l2cache.ReadExReq_miss_latency::total       292400                       # number of ReadExReq miss cycles
system.l2cache.ReadExReq_accesses::.cpu.data            8                       # number of ReadExReq accesses(hits+misses)
system.l2cache.ReadExReq_accesses::total            8                       # number of ReadExReq accesses(hits+misses)
system.l2cache.ReadExReq_miss_rate::.cpu.data     0.500000                       # miss rate for ReadExReq accesses
system.l2cache.ReadExReq_miss_rate::total     0.500000                       # miss rate for ReadExReq accesses
system.l2cache.ReadExReq_avg_miss_latency::.cpu.data        73100                       # average ReadExReq miss latency
system.l2cache.ReadExReq_avg_miss_latency::total        73100                       # average ReadExReq miss latency
system.l2cache.ReadExReq_mshr_misses::.cpu.data            4                       # number of ReadExReq MSHR misses
system.l2cache.ReadExReq_mshr_misses::total            4                       # number of ReadExReq MSHR misses
system.l2cache.ReadExReq_mshr_miss_latency::.cpu.data       260400                       # number of ReadExReq MSHR miss cycles
system.l2cache.ReadExReq_mshr_miss_latency::total       260400                       # number of ReadExReq MSHR miss cycles
system.l2cache.ReadExReq_mshr_miss_rate::.cpu.data     0.500000                       # mshr miss rate for ReadExReq accesses
system.l2cache.ReadExReq_mshr_miss_rate::total     0.500000                       # mshr miss rate for ReadExReq accesses
system.l2cache.ReadExReq_avg_mshr_miss_latency::.cpu.data        65100                       # average ReadExReq mshr miss latency
system.l2cache.ReadExReq_avg_mshr_miss_latency::total        65100                       # average ReadExReq mshr miss latency
system.l2cache.ReadSharedReq_hits::.cpu.inst         1073                       # number of ReadSharedReq hits
system.l2cache.ReadSharedReq_hits::.cpu.data           67                       # number of ReadSharedReq hits
system.l2cache.ReadSharedReq_hits::.cpu.dcache.prefetcher            6                       # number of ReadSharedReq hits
system.l2cache.ReadSharedReq_hits::total         1146                       # number of ReadSharedReq hits
system.l2cache.ReadSharedReq_misses::.cpu.inst          158                       # number of ReadSharedReq misses
system.l2cache.ReadSharedReq_misses::.cpu.data           75                       # number of ReadSharedReq misses
system.l2cache.ReadSharedReq_misses::.cpu.dcache.prefetcher           13                       # number of ReadSharedReq misses
system.l2cache.ReadSharedReq_misses::total          246                       # number of ReadSharedReq misses
system.l2cache.ReadSharedReq_miss_latency::.cpu.inst     10311200                       # number of ReadSharedReq miss cycles
system.l2cache.ReadSharedReq_miss_latency::.cpu.data      5330000                       # number of ReadSharedReq miss cycles
system.l2cache.ReadSharedReq_miss_latency::.cpu.dcache.prefetcher       857588                       # number of ReadSharedReq miss cycles
system.l2cache.ReadSharedReq_miss_latency::total     16498788                       # number of ReadSharedReq miss cycles
system.l2cache.ReadSharedReq_accesses::.cpu.inst         1231                       # number of ReadSharedReq accesses(hits+misses)
system.l2cache.ReadSharedReq_accesses::.cpu.data          142                       # number of ReadSharedReq accesses(hits+misses)
system.l2cache.ReadSharedReq_accesses::.cpu.dcache.prefetcher           19                       # number of ReadSharedReq accesses(hits+misses)
system.l2cache.ReadSharedReq_accesses::total         1392                       # number of ReadSharedReq accesses(hits+misses)
system.l2cache.ReadSharedReq_miss_rate::.cpu.inst     0.128351                       # miss rate for ReadSharedReq accesses
system.l2cache.ReadSharedReq_miss_rate::.cpu.data     0.528169                       # miss rate for ReadSharedReq accesses
system.l2cache.ReadSharedReq_miss_rate::.cpu.dcache.prefetcher     0.684211                       # miss rate for ReadSharedReq accesses
system.l2cache.ReadSharedReq_miss_rate::total     0.176724                       # miss rate for ReadSharedReq accesses
system.l2cache.ReadSharedReq_avg_miss_latency::.cpu.inst 65260.759494                       # average ReadSharedReq miss latency
system.l2cache.ReadSharedReq_avg_miss_latency::.cpu.data 71066.666667                       # average ReadSharedReq miss latency
system.l2cache.ReadSharedReq_avg_miss_latency::.cpu.dcache.prefetcher 65968.307692                       # average ReadSharedReq miss latency
system.l2cache.ReadSharedReq_avg_miss_latency::total 67068.243902                       # average ReadSharedReq miss latency
system.l2cache.ReadSharedReq_mshr_misses::.cpu.inst          158                       # number of ReadSharedReq MSHR misses
system.l2cache.ReadSharedReq_mshr_misses::.cpu.data           75                       # number of ReadSharedReq MSHR misses
system.l2cache.ReadSharedReq_mshr_misses::.cpu.dcache.prefetcher           13                       # number of ReadSharedReq MSHR misses
system.l2cache.ReadSharedReq_mshr_misses::total          246                       # number of ReadSharedReq MSHR misses
system.l2cache.ReadSharedReq_mshr_miss_latency::.cpu.inst      9055200                       # number of ReadSharedReq MSHR miss cycles
system.l2cache.ReadSharedReq_mshr_miss_latency::.cpu.data      4730000                       # number of ReadSharedReq MSHR miss cycles
system.l2cache.ReadSharedReq_mshr_miss_latency::.cpu.dcache.prefetcher       753588                       # number of ReadSharedReq MSHR miss cycles
system.l2cache.ReadSharedReq_mshr_miss_latency::total     14538788                       # number of ReadSharedReq MSHR miss cycles
system.l2cache.ReadSharedReq_mshr_miss_rate::.cpu.inst     0.128351                       # mshr miss rate for ReadSharedReq accesses
system.l2cache.ReadSharedReq_mshr_miss_rate::.cpu.data     0.528169                       # mshr miss rate for ReadSharedReq accesses
system.l2cache.ReadSharedReq_mshr_miss_rate::.cpu.dcache.prefetcher     0.684211                       # mshr miss rate for ReadSharedReq accesses
system.l2cache.ReadSharedReq_mshr_miss_rate::total     0.176724                       # mshr miss rate for ReadSharedReq accesses
system.l2cache.ReadSharedReq_avg_mshr_miss_latency::.cpu.inst 57311.392405                       # average ReadSharedReq mshr miss latency
system.l2cache.ReadSharedReq_avg_mshr_miss_latency::.cpu.data 63066.666667                       # average ReadSharedReq mshr miss latency
system.l2cache.ReadSharedReq_avg_mshr_miss_latency::.cpu.dcache.prefetcher 57968.307692                       # average ReadSharedReq mshr miss latency
system.l2cache.ReadSharedReq_avg_mshr_miss_latency::total 59100.764228                       # average ReadSharedReq mshr miss latency
system.l2cache.prefetcher.pwrStateResidencyTicks::UNDEFINED     70387600                       # Cumulative time (in ticks) in various power states
system.l2cache.tags.pwrStateResidencyTicks::UNDEFINED     70387600                       # Cumulative time (in ticks) in various power states
system.l2cache.tags.tagsinuse                    4096                       # Cycle average of tags in use
system.l2cache.tags.total_refs                  17163                       # Total number of references to valid blocks.
system.l2cache.tags.sampled_refs                 4350                       # Sample count of references to valid blocks.
system.l2cache.tags.avg_refs                 3.945517                       # Average number of references to valid blocks.
system.l2cache.tags.warmup_cycle                    0                       # Cycle when the warmup percentage was hit.
system.l2cache.tags.occ_blocks::.writebacks    39.059846                       # Average occupied blocks per requestor
system.l2cache.tags.occ_blocks::.cpu.inst  1137.376858                       # Average occupied blocks per requestor
system.l2cache.tags.occ_blocks::.cpu.data  1840.500883                       # Average occupied blocks per requestor
system.l2cache.tags.occ_blocks::.cpu.dcache.prefetcher   958.879791                       # Average occupied blocks per requestor
system.l2cache.tags.occ_blocks::.l2cache.prefetcher   120.182623                       # Average occupied blocks per requestor
system.l2cache.tags.occ_percent::.writebacks     0.009536                       # Average percentage of cache occupancy
system.l2cache.tags.occ_percent::.cpu.inst     0.277680                       # Average percentage of cache occupancy
system.l2cache.tags.occ_percent::.cpu.data     0.449341                       # Average percentage of cache occupancy
system.l2cache.tags.occ_percent::.cpu.dcache.prefetcher     0.234102                       # Average percentage of cache occupancy
system.l2cache.tags.occ_percent::.l2cache.prefetcher     0.029341                       # Average percentage of cache occupancy
system.l2cache.tags.occ_percent::total              1                       # Average percentage of cache occupancy
system.l2cache.tags.occ_task_id_blocks::1022         1028                       # Occupied blocks per task id
system.l2cache.tags.occ_task_id_blocks::1024         3068                       # Occupied blocks per task id
system.l2cache.tags.age_task_id_blocks_1022::0            7                       # Occupied blocks per task id
system.l2cache.tags.age_task_id_blocks_1022::1            6                       # Occupied blocks per task id
system.l2cache.tags.age_task_id_blocks_1022::3         1015                       # Occupied blocks per task id
system.l2cache.tags.age_task_id_blocks_1024::0          164                       # Occupied blocks per task id
system.l2cache.tags.age_task_id_blocks_1024::1           77                       # Occupied blocks per task id
system.l2cache.tags.age_task_id_blocks_1024::3         2827                       # Occupied blocks per task id
system.l2cache.tags.occ_task_id_percent::1022     0.250977                       # Percentage of cache occupancy per task id
system.l2cache.tags.occ_task_id_percent::1024     0.749023                       # Percentage of cache occupancy per task id
system.l2cache.tags.tag_accesses                22646                       # Number of tag accesses
system.l2cache.tags.data_accesses               22646                       # Number of data accesses
system.mem_ctrl.pwrStateResidencyTicks::UNDEFINED     70387600                       # Cumulative time (in ticks) in various power states
system.mem_ctrl.bytes_read::.cpu.inst           10048                       # Number of bytes read from this memory
system.mem_ctrl.bytes_read::.cpu.data            5056                       # Number of bytes read from this memory
system.mem_ctrl.bytes_read::.cpu.dcache.prefetcher          832                       # Number of bytes read from this memory
system.mem_ctrl.bytes_read::total               15936                       # Number of bytes read from this memory
system.mem_ctrl.bytes_inst_read::.cpu.inst        10048                       # Number of instructions bytes read from this memory
system.mem_ctrl.bytes_inst_read::total          10048                       # Number of instructions bytes read from this memory
system.mem_ctrl.bytes_written::.writebacks         1216                       # Number of bytes written to this memory
system.mem_ctrl.bytes_written::total             1216                       # Number of bytes written to this memory
system.mem_ctrl.num_reads::.cpu.inst              157                       # Number of read requests responded to by this memory
system.mem_ctrl.num_reads::.cpu.data               79                       # Number of read requests responded to by this memory
system.mem_ctrl.num_reads::.cpu.dcache.prefetcher           13                       # Number of read requests responded to by this memory
system.mem_ctrl.num_reads::total                  249                       # Number of read requests responded to by this memory
system.mem_ctrl.num_writes::.writebacks            19                       # Number of write requests responded to by this memory
system.mem_ctrl.num_writes::total                  19                       # Number of write requests responded to by this memory
system.mem_ctrl.bw_read::.cpu.inst          142752417                       # Total read bandwidth from this memory (bytes/s)
system.mem_ctrl.bw_read::.cpu.data           71830834                       # Total read bandwidth from this memory (bytes/s)
system.mem_ctrl.bw_read::.cpu.dcache.prefetcher     11820264                       # Total read bandwidth from this memory (bytes/s)
system.mem_ctrl.bw_read::total              226403514                       # Total read bandwidth from this memory (bytes/s)
system.mem_ctrl.bw_inst_read::.cpu.inst     142752417                       # Instruction read bandwidth from this memory (bytes/s)
system.mem_ctrl.bw_inst_read::total         142752417                       # Instruction read bandwidth from this memory (bytes/s)
system.mem_ctrl.bw_write::.writebacks        17275770                       # Write bandwidth from this memory (bytes/s)
system.mem_ctrl.bw_write::total              17275770                       # Write bandwidth from this memory (bytes/s)
system.mem_ctrl.bw_total::.writebacks        17275770                       # Total bandwidth to/from this memory (bytes/s)
system.mem_ctrl.bw_total::.cpu.inst         142752417                       # Total bandwidth to/from this memory (bytes/s)
system.mem_ctrl.bw_total::.cpu.data          71830834                       # Total bandwidth to/from this memory (bytes/s)
system.mem_ctrl.bw_total::.cpu.dcache.prefetcher     11820264                       # Total bandwidth to/from this memory (bytes/s)
system.mem_ctrl.bw_total::total             243679284                       # Total bandwidth to/from this memory (bytes/s)

---------- End Simulation Statistics   ----------
