
---------- Begin Simulation Statistics ----------
final_tick                                 1102592400                       # Number of ticks from beginning of simulation (restored from checkpoints and never reset)
host_inst_rate                                 142908                       # Simulator instruction rate (inst/s)
host_mem_usage                                4408880                       # Number of bytes of host memory used
host_op_rate                                   249201                       # Simulator op (including micro ops) rate (op/s)
host_seconds                                    14.51                       # Real time elapsed on the host
host_tick_rate                               75978056                       # Simulator tick rate (ticks/s)
sim_freq                                 1000000000000                       # Frequency of simulated ticks
sim_insts                                     2073870                       # Number of instructions simulated
sim_ops                                       3616394                       # Number of ops (including micro ops) simulated
sim_seconds                                  0.001103                       # Number of seconds simulated
sim_ticks                                  1102592400                       # Number of ticks simulated
system.cpu.branchPred.BTBCorrect                    0                       # Number of correct BTB predictions (this stat may not work properly.
system.cpu.branchPred.BTBHitPct              0.000000                       # BTB Hit Percentage
system.cpu.branchPred.BTBHits                       0                       # Number of BTB hits
system.cpu.branchPred.BTBLookups               440670                       # Number of BTB lookups
system.cpu.branchPred.RASInCorrect                 17                       # Number of incorrect RAS predictions.
system.cpu.branchPred.condIncorrect             24158                       # Number of conditional branches incorrect
system.cpu.branchPred.condPredicted            465787                       # Number of conditional branches predicted
system.cpu.branchPred.indirectHits             239977                       # Number of indirect target hits.
system.cpu.branchPred.indirectLookups          440670                       # Number of indirect predictor lookups.
system.cpu.branchPred.indirectMisses           200693                       # Number of indirect misses.
system.cpu.branchPred.lookups                  493269                       # Number of BP lookups
system.cpu.branchPred.usedRAS                   12052                       # Number of times the RAS was used to get a target.
system.cpu.branchPredindirectMispredicted        12045                       # Number of mispredicted indirect branches.
system.cpu.cc_regfile_reads                   2377931                       # number of cc regfile reads
system.cpu.cc_regfile_writes                  1927231                       # number of cc regfile writes
system.cpu.commit.amos                              0                       # Number of atomic instructions committed
system.cpu.commit.branchMispredicts             24244                       # The number of times a branch was mispredicted
system.cpu.commit.branches                     350129                       # Number of branches committed
system.cpu.commit.bw_lim_events                602750                       # number cycles where commit BW limit reached
system.cpu.commit.commitNonSpecStalls             842                       # The number of times commit has been forced to stall to communicate backwards
system.cpu.commit.commitSquashedInsts          885037                       # The number of squashed insts skipped by commit
system.cpu.commit.committedInsts              2073870                       # Number of instructions committed
system.cpu.commit.committedOps                3616394                       # Number of ops (including micro ops) committed
system.cpu.commit.committed_per_cycle::samples      2345869                       # Number of insts commited each cycle
system.cpu.commit.committed_per_cycle::mean     1.541601                       # Number of insts commited each cycle
system.cpu.commit.committed_per_cycle::stdev     1.727117                       # Number of insts commited each cycle
system.cpu.commit.committed_per_cycle::underflows            0      0.00%      0.00% # Number of insts commited each cycle
system.cpu.commit.committed_per_cycle::0      1168351     49.80%     49.80% # Number of insts commited each cycle
system.cpu.commit.committed_per_cycle::1       175122      7.47%     57.27% # Number of insts commited each cycle
system.cpu.commit.committed_per_cycle::2       168666      7.19%     64.46% # Number of insts commited each cycle
system.cpu.commit.committed_per_cycle::3       230980      9.85%     74.31% # Number of insts commited each cycle
system.cpu.commit.committed_per_cycle::4       602750     25.69%    100.00% # Number of insts commited each cycle
system.cpu.commit.committed_per_cycle::overflows            0      0.00%    100.00% # Number of insts commited each cycle
system.cpu.commit.committed_per_cycle::min_value            0                       # Number of insts commited each cycle
system.cpu.commit.committed_per_cycle::max_value            4                       # Number of insts commited each cycle
system.cpu.commit.committed_per_cycle::total      2345869                       # Number of insts commited each cycle
system.cpu.commit.fp_insts                      75383                       # Number of committed floating point instructions.
system.cpu.commit.function_calls                10113                       # Number of function calls committed.
system.cpu.commit.int_insts                   3561015                       # Number of committed integer instructions.
system.cpu.commit.loads                        500275                       # Number of loads committed
system.cpu.commit.membars                           1                       # Number of memory barriers committed
system.cpu.commit.op_class_0::No_OpClass        20448      0.57%      0.57% # Class of committed instruction
system.cpu.commit.op_class_0::IntAlu          2840325     78.54%     79.11% # Class of committed instruction
system.cpu.commit.op_class_0::IntMult             129      0.00%     79.11% # Class of committed instruction
system.cpu.commit.op_class_0::IntDiv            37797      1.05%     80.15% # Class of committed instruction
system.cpu.commit.op_class_0::FloatAdd           2941      0.08%     80.24% # Class of committed instruction
system.cpu.commit.op_class_0::FloatCmp              0      0.00%     80.24% # Class of committed instruction
system.cpu.commit.op_class_0::FloatCvt           1376      0.04%     80.27% # Class of committed instruction
system.cpu.commit.op_class_0::FloatMult             0      0.00%     80.27% # Class of committed instruction
system.cpu.commit.op_class_0::FloatMultAcc            0      0.00%     80.27% # Class of committed instruction
system.cpu.commit.op_class_0::FloatDiv              0      0.00%     80.27% # Class of committed instruction
system.cpu.commit.op_class_0::FloatMisc             0      0.00%     80.27% # Class of committed instruction
system.cpu.commit.op_class_0::FloatSqrt             0      0.00%     80.27% # Class of committed instruction
system.cpu.commit.op_class_0::SimdAdd            6320      0.17%     80.45% # Class of committed instruction
system.cpu.commit.op_class_0::SimdAddAcc            0      0.00%     80.45% # Class of committed instruction
system.cpu.commit.op_class_0::SimdAlu           11345      0.31%     80.76% # Class of committed instruction
system.cpu.commit.op_class_0::SimdCmp               0      0.00%     80.76% # Class of committed instruction
system.cpu.commit.op_class_0::SimdCvt           12382      0.34%     81.10% # Class of committed instruction
system.cpu.commit.op_class_0::SimdMisc           6689      0.18%     81.29% # Class of committed instruction
system.cpu.commit.op_class_0::SimdMult              0      0.00%     81.29% # Class of committed instruction
system.cpu.commit.op_class_0::SimdMultAcc            0      0.00%     81.29% # Class of committed instruction
system.cpu.commit.op_class_0::SimdShift          1176      0.03%     81.32% # Class of committed instruction
system.cpu.commit.op_class_0::SimdShiftAcc            0      0.00%     81.32% # Class of committed instruction
system.cpu.commit.op_class_0::SimdDiv               0      0.00%     81.32% # Class of committed instruction
system.cpu.commit.op_class_0::SimdSqrt              0      0.00%     81.32% # Class of committed instruction
system.cpu.commit.op_class_0::SimdFloatAdd            0      0.00%     81.32% # Class of committed instruction
system.cpu.commit.op_class_0::SimdFloatAlu            0      0.00%     81.32% # Class of committed instruction
system.cpu.commit.op_class_0::SimdFloatCmp            0      0.00%     81.32% # Class of committed instruction
system.cpu.commit.op_class_0::SimdFloatCvt            0      0.00%     81.32% # Class of committed instruction
system.cpu.commit.op_class_0::SimdFloatDiv            0      0.00%     81.32% # Class of committed instruction
system.cpu.commit.op_class_0::SimdFloatMisc            0      0.00%     81.32% # Class of committed instruction
system.cpu.commit.op_class_0::SimdFloatMult            0      0.00%     81.32% # Class of committed instruction
system.cpu.commit.op_class_0::SimdFloatMultAcc            0      0.00%     81.32% # Class of committed instruction
system.cpu.commit.op_class_0::SimdFloatSqrt            0      0.00%     81.32% # Class of committed instruction
system.cpu.commit.op_class_0::SimdReduceAdd            0      0.00%     81.32% # Class of committed instruction
system.cpu.commit.op_class_0::SimdReduceAlu            0      0.00%     81.32% # Class of committed instruction
system.cpu.commit.op_class_0::SimdReduceCmp            0      0.00%     81.32% # Class of committed instruction
system.cpu.commit.op_class_0::SimdFloatReduceAdd            0      0.00%     81.32% # Class of committed instruction
system.cpu.commit.op_class_0::SimdFloatReduceCmp            0      0.00%     81.32% # Class of committed instruction
system.cpu.commit.op_class_0::SimdAes               0      0.00%     81.32% # Class of committed instruction
system.cpu.commit.op_class_0::SimdAesMix            0      0.00%     81.32% # Class of committed instruction
system.cpu.commit.op_class_0::SimdSha1Hash            0      0.00%     81.32% # Class of committed instruction
system.cpu.commit.op_class_0::SimdSha1Hash2            0      0.00%     81.32% # Class of committed instruction
system.cpu.commit.op_class_0::SimdSha256Hash            0      0.00%     81.32% # Class of committed instruction
system.cpu.commit.op_class_0::SimdSha256Hash2            0      0.00%     81.32% # Class of committed instruction
system.cpu.commit.op_class_0::SimdShaSigma2            0      0.00%     81.32% # Class of committed instruction
system.cpu.commit.op_class_0::SimdShaSigma3            0      0.00%     81.32% # Class of committed instruction
system.cpu.commit.op_class_0::SimdPredAlu            0      0.00%     81.32% # Class of committed instruction
system.cpu.commit.op_class_0::MemRead          480469     13.29%     94.61% # Class of committed instruction
system.cpu.commit.op_class_0::MemWrite         162692      4.50%     99.11% # Class of committed instruction
system.cpu.commit.op_class_0::FloatMemRead        19806      0.55%     99.65% # Class of committed instruction
system.cpu.commit.op_class_0::FloatMemWrite        12499      0.35%    100.00% # Class of committed instruction
system.cpu.commit.op_class_0::IprAccess             0      0.00%    100.00% # Class of committed instruction
system.cpu.commit.op_class_0::InstPrefetch            0      0.00%    100.00% # Class of committed instruction
system.cpu.commit.op_class_0::total           3616394                       # Class of committed instruction
system.cpu.commit.refs                         675466                       # Number of memory references committed
system.cpu.commit.swp_count                         0                       # Number of s/w prefetches committed
system.cpu.commit.vec_insts                         0                       # Number of committed Vector instructions.
system.cpu.committedInsts                     2073870                       # Number of Instructions Simulated
system.cpu.committedOps                       3616394                       # Number of Ops (including micro ops) Simulated
system.cpu.cpi                               1.329149                       # CPI: Cycles Per Instruction
system.cpu.cpi_total                         1.329149                       # CPI: Total CPI of All Threads
system.cpu.dcache.prefetcher.num_hwpf_issued         8010                       # number of hwpf issued
system.cpu.dcache.prefetcher.pfBufferHit        34539                       # number of redundant prefetches already in prefetch queue
system.cpu.dcache.prefetcher.pfIdentified        49925                       # number of prefetch candidates identified
system.cpu.dcache.prefetcher.pfInCache              0                       # number of redundant prefetches already in cache/mshr dropped
system.cpu.dcache.prefetcher.pfRemovedFull            0                       # number of prefetches dropped due to prefetch queue size
system.cpu.dcache.prefetcher.pfSpanPage          4535                       # number of prefetches that crossed the page
system.cpu.decode.BlockedCycles               1027661                       # Number of cycles decode is blocked
system.cpu.decode.DecodedInsts                4715056                       # Number of instructions handled by decode
system.cpu.decode.IdleCycles                   300331                       # Number of cycles decode is idle
system.cpu.decode.RunCycles                   1148529                       # Number of cycles decode is running
system.cpu.decode.SquashCycles                  24307                       # Number of cycles decode is squashing
system.cpu.decode.UnblockCycles                 86867                       # Number of cycles decode is unblocking
system.cpu.dtb.rdAccesses                      583885                       # TLB accesses on read requests
system.cpu.dtb.rdMisses                          2050                       # TLB misses on read requests
system.cpu.dtb.wrAccesses                      194849                       # TLB accesses on write requests
system.cpu.dtb.wrMisses                           171                       # TLB misses on write requests
system.cpu.fetch.Branches                      493269                       # Number of branches that fetch encountered
system.cpu.fetch.CacheLines                    242661                       # Number of cache lines fetched
system.cpu.fetch.Cycles                       2226427                       # Number of cycles fetch has run and was not squashing or blocked
system.cpu.fetch.IcacheSquashes                  4574                       # Number of outstanding Icache misses that were squashed
system.cpu.fetch.Insts                        2839434                       # Number of instructions fetch has processed
system.cpu.fetch.MiscStallCycles                  103                       # Number of cycles fetch has spent waiting on interrupts, or bad addresses, or out of MSHRs
system.cpu.fetch.PendingQuiesceStallCycles            6                       # Number of stall cycles due to pending quiesce instructions
system.cpu.fetch.PendingTrapStallCycles           653                       # Number of stall cycles due to pending traps
system.cpu.fetch.SquashCycles                   48614                       # Number of cycles fetch has spent squashing
system.cpu.fetch.branchRate                  0.178949                       # Number of branch fetches per cycle
system.cpu.fetch.icacheStallCycles             336199                       # Number of cycles fetch is stalled on an Icache miss
system.cpu.fetch.predictedBranches             252029                       # Number of branches that fetch has predicted taken
system.cpu.fetch.rate                        1.030093                       # Number of inst fetches per cycle
system.cpu.fetch.rateDist::samples            2587695                       # Number of instructions fetched each cycle (Total)
system.cpu.fetch.rateDist::mean              1.928393                       # Number of instructions fetched each cycle (Total)
system.cpu.fetch.rateDist::stdev             1.930547                       # Number of instructions fetched each cycle (Total)
system.cpu.fetch.rateDist::underflows               0      0.00%      0.00% # Number of instructions fetched each cycle (Total)
system.cpu.fetch.rateDist::0                  1235446     47.74%     47.74% # Number of instructions fetched each cycle (Total)
system.cpu.fetch.rateDist::1                    74087      2.86%     50.61% # Number of instructions fetched each cycle (Total)
system.cpu.fetch.rateDist::2                    59522      2.30%     52.91% # Number of instructions fetched each cycle (Total)
system.cpu.fetch.rateDist::3                    77599      3.00%     55.91% # Number of instructions fetched each cycle (Total)
system.cpu.fetch.rateDist::4                  1141041     44.09%    100.00% # Number of instructions fetched each cycle (Total)
system.cpu.fetch.rateDist::overflows                0      0.00%    100.00% # Number of instructions fetched each cycle (Total)
system.cpu.fetch.rateDist::min_value                0                       # Number of instructions fetched each cycle (Total)
system.cpu.fetch.rateDist::max_value                4                       # Number of instructions fetched each cycle (Total)
system.cpu.fetch.rateDist::total              2587695                       # Number of instructions fetched each cycle (Total)
system.cpu.fp_regfile_reads                    121828                       # number of floating regfile reads
system.cpu.fp_regfile_writes                    67112                       # number of floating regfile writes
system.cpu.fuPool.fu_ticks_busy::IntALU(0)    217958000                       # Total ticks fu was busy
system.cpu.fuPool.fu_ticks_busy::IntALU(1)    217958000                       # Total ticks fu was busy
system.cpu.fuPool.fu_ticks_busy::IntALU(2)    217958000                       # Total ticks fu was busy
system.cpu.fuPool.fu_ticks_busy::IntALU(3)    217958000                       # Total ticks fu was busy
system.cpu.fuPool.fu_ticks_busy::IntALU(4)    217958000                       # Total ticks fu was busy
system.cpu.fuPool.fu_ticks_busy::IntALU(5)    217958000                       # Total ticks fu was busy
system.cpu.fuPool.fu_ticks_busy::IntMultDiv(0)      8396000                       # Total ticks fu was busy
system.cpu.fuPool.fu_ticks_busy::IntMultDiv(1)      8395200                       # Total ticks fu was busy
system.cpu.fuPool.fu_ticks_busy::FP_ALU(0)       588400                       # Total ticks fu was busy
system.cpu.fuPool.fu_ticks_busy::FP_ALU(1)       588400                       # Total ticks fu was busy
system.cpu.fuPool.fu_ticks_busy::FP_ALU(2)       588400                       # Total ticks fu was busy
system.cpu.fuPool.fu_ticks_busy::FP_ALU(3)       588000                       # Total ticks fu was busy
system.cpu.fuPool.fu_ticks_busy::FP_MultDiv(0)            0                       # Total ticks fu was busy
system.cpu.fuPool.fu_ticks_busy::FP_MultDiv(1)            0                       # Total ticks fu was busy
system.cpu.fuPool.fu_ticks_busy::SIMD_Unit(0)      4626000                       # Total ticks fu was busy
system.cpu.fuPool.fu_ticks_busy::SIMD_Unit(1)      4359600                       # Total ticks fu was busy
system.cpu.fuPool.fu_ticks_busy::SIMD_Unit(2)      4478800                       # Total ticks fu was busy
system.cpu.fuPool.fu_ticks_busy::SIMD_Unit(3)      4733600                       # Total ticks fu was busy
system.cpu.fuPool.fu_ticks_busy::PredALU(0)            0                       # Total ticks fu was busy
system.cpu.fuPool.fu_ticks_busy::RdWrPort(0)     79336400                       # Total ticks fu was busy
system.cpu.fuPool.fu_ticks_busy::RdWrPort(1)     79370000                       # Total ticks fu was busy
system.cpu.fuPool.fu_ticks_busy::RdWrPort(2)     79339600                       # Total ticks fu was busy
system.cpu.fuPool.fu_ticks_busy::RdWrPort(3)     79282800                       # Total ticks fu was busy
system.cpu.fuPool.fu_ticks_busy::IprPort(0)            0                       # Total ticks fu was busy
system.cpu.fuPool.fu_ticks_busy::total     1662419200                       # Total ticks fu was busy
system.cpu.icache.prefetcher.num_hwpf_issued            0                       # number of hwpf issued
system.cpu.icache.prefetcher.pfBufferHit            0                       # number of redundant prefetches already in prefetch queue
system.cpu.icache.prefetcher.pfIdentified            0                       # number of prefetch candidates identified
system.cpu.icache.prefetcher.pfInCache              0                       # number of redundant prefetches already in cache/mshr dropped
system.cpu.icache.prefetcher.pfRemovedFull            0                       # number of prefetches dropped due to prefetch queue size
system.cpu.icache.prefetcher.pfSpanPage             0                       # number of prefetches that crossed the page
system.cpu.idleCycles                          168787                       # Total number of cycles that the CPU has spent unscheduled due to idling
system.cpu.iew.branchMispredicts                28593                       # Number of branch mispredicts detected at execute
system.cpu.iew.exec_branches                   380179                       # Number of branches executed
system.cpu.iew.exec_nop                             0                       # number of nop insts executed
system.cpu.iew.exec_rate                     1.504975                       # Inst execution rate
system.cpu.iew.exec_refs                       780565                       # number of memory reference insts executed
system.cpu.iew.exec_stores                     194834                       # Number of stores executed
system.cpu.iew.exec_swp                             0                       # number of swp insts executed
system.cpu.iew.iewBlockCycles                  697018                       # Number of cycles IEW is blocking
system.cpu.iew.iewDispLoadInsts                616316                       # Number of dispatched load instructions
system.cpu.iew.iewDispNonSpecInsts               1078                       # Number of dispatched non-speculative instructions
system.cpu.iew.iewDispSquashedInsts               569                       # Number of squashed instructions skipped by dispatch
system.cpu.iew.iewDispStoreInsts               205125                       # Number of dispatched store instructions
system.cpu.iew.iewDispatchedInsts             4501370                       # Number of instructions dispatched to IQ
system.cpu.iew.iewExecLoadInsts                585731                       # Number of load instructions executed
system.cpu.iew.iewExecSquashedInsts             34044                       # Number of squashed instructions skipped in execute
system.cpu.iew.iewExecutedInsts               4148436                       # Number of executed instructions
system.cpu.iew.iewIQFullEvents                   3317                       # Number of times the IQ has become full, causing a stall
system.cpu.iew.iewIdleCycles                        0                       # Number of cycles IEW is idle
system.cpu.iew.iewLSQFullEvents                  8442                       # Number of times the LSQ has become full, causing a stall
system.cpu.iew.iewSquashCycles                  24307                       # Number of cycles IEW is squashing
system.cpu.iew.iewUnblockCycles                 14562                       # Number of cycles IEW is unblocking
system.cpu.iew.lsq.thread0.blockedLoads             0                       # Number of blocked loads due to partial load-store forwarding
system.cpu.iew.lsq.thread0.cacheBlocked           638                       # Number of times an access to memory failed due to the cache being blocked
system.cpu.iew.lsq.thread0.forwLoads            39665                       # Number of loads that had data forwarded from stores
system.cpu.iew.lsq.thread0.ignoredResponses          245                       # Number of memory responses ignored because the instruction is squashed
system.cpu.iew.lsq.thread0.invAddrLoads             0                       # Number of loads ignored due to an invalid address
system.cpu.iew.lsq.thread0.invAddrSwpfs             0                       # Number of software prefetches ignored due to an invalid address
system.cpu.iew.lsq.thread0.memOrderViolation           76                       # Number of memory ordering violations
system.cpu.iew.lsq.thread0.rescheduledLoads            0                       # Number of loads that were rescheduled
system.cpu.iew.lsq.thread0.squashedLoads       116039                       # Number of loads squashed
system.cpu.iew.lsq.thread0.squashedStores        29933                       # Number of stores squashed
system.cpu.iew.memOrderViolationEvents             76                       # Number of memory order violations
system.cpu.iew.predictedNotTakenIncorrect        20366                       # Number of branches that were predicted not taken incorrectly
system.cpu.iew.predictedTakenIncorrect           8227                       # Number of branches that were predicted taken incorrectly
system.cpu.iew.wb_consumers                   5791208                       # num instructions consuming a value
system.cpu.iew.wb_count                       4126402                       # cumulative count of insts written-back
system.cpu.iew.wb_fanout                     0.567978                       # average fanout of values written-back
system.cpu.iew.wb_producers                   3289277                       # num instructions producing a value
system.cpu.iew.wb_rate                       1.496981                       # insts written-back per cycle
system.cpu.iew.wb_sent                        4133268                       # cumulative count of insts sent to commit
system.cpu.int_regfile_reads                  6426909                       # number of integer regfile reads
system.cpu.int_regfile_writes                 3559562                       # number of integer regfile writes
system.cpu.ipc                               0.752361                       # IPC: Instructions Per Cycle
system.cpu.ipc_total                         0.752361                       # IPC: Total IPC of All Threads
system.cpu.iq.FU_type_0::No_OpClass             26432      0.63%      0.63% # Type of FU issued
system.cpu.iq.FU_type_0::IntAlu               3269371     78.17%     78.80% # Type of FU issued
system.cpu.iq.FU_type_0::IntMult                  155      0.00%     78.80% # Type of FU issued
system.cpu.iq.FU_type_0::IntDiv                 41823      1.00%     79.80% # Type of FU issued
system.cpu.iq.FU_type_0::FloatAdd                4432      0.11%     79.91% # Type of FU issued
system.cpu.iq.FU_type_0::FloatCmp                   0      0.00%     79.91% # Type of FU issued
system.cpu.iq.FU_type_0::FloatCvt                1451      0.03%     79.94% # Type of FU issued
system.cpu.iq.FU_type_0::FloatMult                  0      0.00%     79.94% # Type of FU issued
system.cpu.iq.FU_type_0::FloatMultAcc               0      0.00%     79.94% # Type of FU issued
system.cpu.iq.FU_type_0::FloatDiv                   0      0.00%     79.94% # Type of FU issued
system.cpu.iq.FU_type_0::FloatMisc                  0      0.00%     79.94% # Type of FU issued
system.cpu.iq.FU_type_0::FloatSqrt                  0      0.00%     79.94% # Type of FU issued
system.cpu.iq.FU_type_0::SimdAdd                 6948      0.17%     80.11% # Type of FU issued
system.cpu.iq.FU_type_0::SimdAddAcc                 0      0.00%     80.11% # Type of FU issued
system.cpu.iq.FU_type_0::SimdAlu                14971      0.36%     80.47% # Type of FU issued
system.cpu.iq.FU_type_0::SimdCmp                    0      0.00%     80.47% # Type of FU issued
system.cpu.iq.FU_type_0::SimdCvt                14119      0.34%     80.81% # Type of FU issued
system.cpu.iq.FU_type_0::SimdMisc                7278      0.17%     80.98% # Type of FU issued
system.cpu.iq.FU_type_0::SimdMult                   0      0.00%     80.98% # Type of FU issued
system.cpu.iq.FU_type_0::SimdMultAcc                0      0.00%     80.98% # Type of FU issued
system.cpu.iq.FU_type_0::SimdShift               2179      0.05%     81.03% # Type of FU issued
system.cpu.iq.FU_type_0::SimdShiftAcc               0      0.00%     81.03% # Type of FU issued
system.cpu.iq.FU_type_0::SimdDiv                    0      0.00%     81.03% # Type of FU issued
system.cpu.iq.FU_type_0::SimdSqrt                   0      0.00%     81.03% # Type of FU issued
system.cpu.iq.FU_type_0::SimdFloatAdd               0      0.00%     81.03% # Type of FU issued
system.cpu.iq.FU_type_0::SimdFloatAlu               0      0.00%     81.03% # Type of FU issued
system.cpu.iq.FU_type_0::SimdFloatCmp               0      0.00%     81.03% # Type of FU issued
system.cpu.iq.FU_type_0::SimdFloatCvt               0      0.00%     81.03% # Type of FU issued
system.cpu.iq.FU_type_0::SimdFloatDiv               0      0.00%     81.03% # Type of FU issued
system.cpu.iq.FU_type_0::SimdFloatMisc              0      0.00%     81.03% # Type of FU issued
system.cpu.iq.FU_type_0::SimdFloatMult              0      0.00%     81.03% # Type of FU issued
system.cpu.iq.FU_type_0::SimdFloatMultAcc            0      0.00%     81.03% # Type of FU issued
system.cpu.iq.FU_type_0::SimdFloatSqrt              0      0.00%     81.03% # Type of FU issued
system.cpu.iq.FU_type_0::SimdReduceAdd              0      0.00%     81.03% # Type of FU issued
system.cpu.iq.FU_type_0::SimdReduceAlu              0      0.00%     81.03% # Type of FU issued
system.cpu.iq.FU_type_0::SimdReduceCmp              0      0.00%     81.03% # Type of FU issued
system.cpu.iq.FU_type_0::SimdFloatReduceAdd            0      0.00%     81.03% # Type of FU issued
system.cpu.iq.FU_type_0::SimdFloatReduceCmp            0      0.00%     81.03% # Type of FU issued
system.cpu.iq.FU_type_0::SimdAes                    0      0.00%     81.03% # Type of FU issued
system.cpu.iq.FU_type_0::SimdAesMix                 0      0.00%     81.03% # Type of FU issued
system.cpu.iq.FU_type_0::SimdSha1Hash               0      0.00%     81.03% # Type of FU issued
system.cpu.iq.FU_type_0::SimdSha1Hash2              0      0.00%     81.03% # Type of FU issued
system.cpu.iq.FU_type_0::SimdSha256Hash             0      0.00%     81.03% # Type of FU issued
system.cpu.iq.FU_type_0::SimdSha256Hash2            0      0.00%     81.03% # Type of FU issued
system.cpu.iq.FU_type_0::SimdShaSigma2              0      0.00%     81.03% # Type of FU issued
system.cpu.iq.FU_type_0::SimdShaSigma3              0      0.00%     81.03% # Type of FU issued
system.cpu.iq.FU_type_0::SimdPredAlu                0      0.00%     81.03% # Type of FU issued
system.cpu.iq.FU_type_0::MemRead               570047     13.63%     94.66% # Type of FU issued
system.cpu.iq.FU_type_0::MemWrite              183672      4.39%     99.05% # Type of FU issued
system.cpu.iq.FU_type_0::FloatMemRead           25822      0.62%     99.67% # Type of FU issued
system.cpu.iq.FU_type_0::FloatMemWrite          13783      0.33%    100.00% # Type of FU issued
system.cpu.iq.FU_type_0::IprAccess                  0      0.00%    100.00% # Type of FU issued
system.cpu.iq.FU_type_0::InstPrefetch               0      0.00%    100.00% # Type of FU issued
system.cpu.iq.FU_type_0::total                4182483                       # Type of FU issued
system.cpu.iq.fp_alu_accesses                   91994                       # Number of floating point alu accesses
system.cpu.iq.fp_inst_queue_reads              185432                       # Number of floating instruction queue reads
system.cpu.iq.fp_inst_queue_wakeup_accesses        88554                       # Number of floating instruction queue wakeup accesses
system.cpu.iq.fp_inst_queue_writes             133465                       # Number of floating instruction queue writes
system.cpu.iq.fu_busy_cnt                           0                       # FU busy when requested
system.cpu.iq.fu_busy_rate                          0                       # FU busy rate (busy events/executed inst)
system.cpu.iq.fu_full::No_OpClass                   0                       # attempts to use FU when none available
system.cpu.iq.fu_full::IntAlu                       0                       # attempts to use FU when none available
system.cpu.iq.fu_full::IntMult                      0                       # attempts to use FU when none available
system.cpu.iq.fu_full::IntDiv                       0                       # attempts to use FU when none available
system.cpu.iq.fu_full::FloatAdd                     0                       # attempts to use FU when none available
system.cpu.iq.fu_full::FloatCmp                     0                       # attempts to use FU when none available
system.cpu.iq.fu_full::FloatCvt                     0                       # attempts to use FU when none available
system.cpu.iq.fu_full::FloatMult                    0                       # attempts to use FU when none available
system.cpu.iq.fu_full::FloatMultAcc                 0                       # attempts to use FU when none available
system.cpu.iq.fu_full::FloatDiv                     0                       # attempts to use FU when none available
system.cpu.iq.fu_full::FloatMisc                    0                       # attempts to use FU when none available
system.cpu.iq.fu_full::FloatSqrt                    0                       # attempts to use FU when none available
system.cpu.iq.fu_full::SimdAdd                      0                       # attempts to use FU when none available
system.cpu.iq.fu_full::SimdAddAcc                   0                       # attempts to use FU when none available
system.cpu.iq.fu_full::SimdAlu                      0                       # attempts to use FU when none available
system.cpu.iq.fu_full::SimdCmp                      0                       # attempts to use FU when none available
system.cpu.iq.fu_full::SimdCvt                      0                       # attempts to use FU when none available
system.cpu.iq.fu_full::SimdMisc                     0                       # attempts to use FU when none available
system.cpu.iq.fu_full::SimdMult                     0                       # attempts to use FU when none available
system.cpu.iq.fu_full::SimdMultAcc                  0                       # attempts to use FU when none available
system.cpu.iq.fu_full::SimdShift                    0                       # attempts to use FU when none available
system.cpu.iq.fu_full::SimdShiftAcc                 0                       # attempts to use FU when none available
system.cpu.iq.fu_full::SimdDiv                      0                       # attempts to use FU when none available
system.cpu.iq.fu_full::SimdSqrt                     0                       # attempts to use FU when none available
system.cpu.iq.fu_full::SimdFloatAdd                 0                       # attempts to use FU when none available
system.cpu.iq.fu_full::SimdFloatAlu                 0                       # attempts to use FU when none available
system.cpu.iq.fu_full::SimdFloatCmp                 0                       # attempts to use FU when none available
system.cpu.iq.fu_full::SimdFloatCvt                 0                       # attempts to use FU when none available
system.cpu.iq.fu_full::SimdFloatDiv                 0                       # attempts to use FU when none available
system.cpu.iq.fu_full::SimdFloatMisc                0                       # attempts to use FU when none available
system.cpu.iq.fu_full::SimdFloatMult                0                       # attempts to use FU when none available
system.cpu.iq.fu_full::SimdFloatMultAcc             0                       # attempts to use FU when none available
system.cpu.iq.fu_full::SimdFloatSqrt                0                       # attempts to use FU when none available
system.cpu.iq.fu_full::SimdReduceAdd                0                       # attempts to use FU when none available
system.cpu.iq.fu_full::SimdReduceAlu                0                       # attempts to use FU when none available
system.cpu.iq.fu_full::SimdReduceCmp                0                       # attempts to use FU when none available
system.cpu.iq.fu_full::SimdFloatReduceAdd            0                       # attempts to use FU when none available
system.cpu.iq.fu_full::SimdFloatReduceCmp            0                       # attempts to use FU when none available
system.cpu.iq.fu_full::SimdAes                      0                       # attempts to use FU when none available
system.cpu.iq.fu_full::SimdAesMix                   0                       # attempts to use FU when none available
system.cpu.iq.fu_full::SimdSha1Hash                 0                       # attempts to use FU when none available
system.cpu.iq.fu_full::SimdSha1Hash2                0                       # attempts to use FU when none available
system.cpu.iq.fu_full::SimdSha256Hash               0                       # attempts to use FU when none available
system.cpu.iq.fu_full::SimdSha256Hash2              0                       # attempts to use FU when none available
system.cpu.iq.fu_full::SimdShaSigma2                0                       # attempts to use FU when none available
system.cpu.iq.fu_full::SimdShaSigma3                0                       # attempts to use FU when none available
system.cpu.iq.fu_full::SimdPredAlu                  0                       # attempts to use FU when none available
system.cpu.iq.fu_full::MemRead                      0                       # attempts to use FU when none available
system.cpu.iq.fu_full::MemWrite                     0                       # attempts to use FU when none available
system.cpu.iq.fu_full::FloatMemRead                 0                       # attempts to use FU when none available
system.cpu.iq.fu_full::FloatMemWrite                0                       # attempts to use FU when none available
system.cpu.iq.fu_full::IprAccess                    0                       # attempts to use FU when none available
system.cpu.iq.fu_full::InstPrefetch                 0                       # attempts to use FU when none available
system.cpu.iq.int_alu_accesses                4064057                       # Number of integer alu accesses
system.cpu.iq.int_inst_queue_reads           10785019                       # Number of integer instruction queue reads
system.cpu.iq.int_inst_queue_wakeup_accesses      4037848                       # Number of integer instruction queue wakeup accesses
system.cpu.iq.int_inst_queue_writes           5252943                       # Number of integer instruction queue writes
system.cpu.iq.iqInstsAdded                    4500047                       # Number of instructions added to the IQ (excludes non-spec)
system.cpu.iq.iqInstsIssued                   4182483                       # Number of instructions issued
system.cpu.iq.iqNonSpecInstsAdded                1323                       # Number of non-speculative instructions added to the IQ
system.cpu.iq.iqSquashedInstsExamined          884965                       # Number of squashed instructions iterated over during squash; mainly for profiling
system.cpu.iq.iqSquashedInstsIssued             17793                       # Number of squashed instructions issued
system.cpu.iq.iqSquashedNonSpecRemoved            481                       # Number of squashed non-spec instructions that were removed
system.cpu.iq.iqSquashedOperandsExamined      1316851                       # Number of squashed operands that are examined and possibly removed from graph
system.cpu.iq.issued_per_cycle::samples       2587695                       # Number of insts issued each cycle
system.cpu.iq.issued_per_cycle::mean         1.616297                       # Number of insts issued each cycle
system.cpu.iq.issued_per_cycle::stdev        1.671435                       # Number of insts issued each cycle
system.cpu.iq.issued_per_cycle::underflows            0      0.00%      0.00% # Number of insts issued each cycle
system.cpu.iq.issued_per_cycle::0             1177443     45.50%     45.50% # Number of insts issued each cycle
system.cpu.iq.issued_per_cycle::1              172254      6.66%     52.16% # Number of insts issued each cycle
system.cpu.iq.issued_per_cycle::2              300741     11.62%     63.78% # Number of insts issued each cycle
system.cpu.iq.issued_per_cycle::3              340281     13.15%     76.93% # Number of insts issued each cycle
system.cpu.iq.issued_per_cycle::4              596976     23.07%    100.00% # Number of insts issued each cycle
system.cpu.iq.issued_per_cycle::overflows            0      0.00%    100.00% # Number of insts issued each cycle
system.cpu.iq.issued_per_cycle::min_value            0                       # Number of insts issued each cycle
system.cpu.iq.issued_per_cycle::max_value            4                       # Number of insts issued each cycle
system.cpu.iq.issued_per_cycle::total         2587695                       # Number of insts issued each cycle
system.cpu.iq.rate                           1.517326                       # Inst issue rate
system.cpu.iq.vec_alu_accesses                      0                       # Number of vector alu accesses
system.cpu.iq.vec_inst_queue_reads                  0                       # Number of vector instruction queue reads
system.cpu.iq.vec_inst_queue_wakeup_accesses            0                       # Number of vector instruction queue wakeup accesses
system.cpu.iq.vec_inst_queue_writes                 0                       # Number of vector instruction queue writes
system.cpu.itb.rdAccesses                           0                       # TLB accesses on read requests
system.cpu.itb.rdMisses                             0                       # TLB misses on read requests
system.cpu.itb.wrAccesses                      242767                       # TLB accesses on write requests
system.cpu.itb.wrMisses                           367                       # TLB misses on write requests
system.cpu.memDep0.conflictingLoads             10547                       # Number of conflicting loads.
system.cpu.memDep0.conflictingStores             3828                       # Number of conflicting stores.
system.cpu.memDep0.insertedLoads               616316                       # Number of loads inserted to the mem dependence unit.
system.cpu.memDep0.insertedStores              205125                       # Number of stores inserted to the mem dependence unit.
system.cpu.misc_regfile_reads                 1575823                       # number of misc regfile reads
system.cpu.misc_regfile_writes                    774                       # number of misc regfile writes
system.cpu.numCycles                          2756482                       # number of cpu cycles simulated
system.cpu.numWorkItemsCompleted                    0                       # number of work items this cpu completed
system.cpu.numWorkItemsStarted                      0                       # number of work items this cpu started
system.cpu.process.numSyscalls                     67                       # Number of system calls
system.cpu.rename.BlockCycles                  840216                       # Number of cycles rename is blocking
system.cpu.rename.CommittedMaps               4928837                       # Number of HB maps that are committed
system.cpu.rename.FullRegisterEvents               26                       # Number of times there has been no free registers
system.cpu.rename.IQFullEvents                  43822                       # Number of times rename has blocked due to IQ full
system.cpu.rename.IdleCycles                   349478                       # Number of cycles rename is idle
system.cpu.rename.LQFullEvents                  15909                       # Number of times rename has blocked due to LQ full
system.cpu.rename.ROBFullEvents                  4263                       # Number of times rename has blocked due to ROB full
system.cpu.rename.RenameLookups              12129732                       # Number of register rename lookups that rename has made
system.cpu.rename.RenamedInsts                4640921                       # Number of instructions processed by rename
system.cpu.rename.RenamedOperands             6318836                       # Number of destination operands rename has renamed
system.cpu.rename.RunCycles                   1178143                       # Number of cycles rename is running
system.cpu.rename.SQFullEvents                  77654                       # Number of times rename has blocked due to SQ full
system.cpu.rename.SquashCycles                  24307                       # Number of cycles rename is squashing
system.cpu.rename.UnblockCycles                173917                       # Number of cycles rename is unblocking
system.cpu.rename.UndoneMaps                  1389976                       # Number of HB maps that are undone due to squashing
system.cpu.rename.fp_rename_lookups            157390                       # Number of floating rename lookups
system.cpu.rename.int_rename_lookups          7366928                       # Number of integer rename lookups
system.cpu.rename.serializeStallCycles          21634                       # count of cycles rename stalled for serializing inst
system.cpu.rename.serializingInsts                988                       # count of serializing insts renamed
system.cpu.rename.skidInsts                    201017                       # count of insts added to the skid buffer
system.cpu.rename.tempSerializingInsts           1049                       # count of temporary serializing insts renamed
system.cpu.rob.rob_reads                      6244550                       # The number of ROB reads
system.cpu.rob.rob_writes                     9245658                       # The number of ROB writes
system.cpu.timesIdled                            1725                       # Number of times that the entire CPU went into an idle state and unscheduled itself
system.l2bus.snoop_filter.hit_multi_requests           16                       # Number of requests hitting in the snoop filter with multiple (>1) holders of the requested data.
system.l2bus.snoop_filter.hit_multi_snoops            1                       # Number of snoops hitting in the snoop filter with multiple (>1) holders of the requested data.
system.l2bus.snoop_filter.hit_single_requests        18744                       # Number of requests hitting in the snoop filter with a single holder of the requested data.
system.l2bus.snoop_filter.hit_single_snoops          433                       # Number of snoops hitting in the snoop filter with a single holder of the requested data.
system.l2bus.snoop_filter.tot_requests          38766                       # Total number of requests made to the snoop filter.
system.l2bus.snoop_filter.tot_snoops              434                       # Total number of snoops made to the snoop filter.
system.l2cache.prefetcher.num_hwpf_issued          639                       # number of hwpf issued
system.l2cache.prefetcher.pfBufferHit               0                       # number of redundant prefetches already in prefetch queue
system.l2cache.prefetcher.pfIdentified            639                       # number of prefetch candidates identified
system.l2cache.prefetcher.pfInCache                 0                       # number of redundant prefetches already in cache/mshr dropped
system.l2cache.prefetcher.pfRemovedFull             0                       # number of prefetches dropped due to prefetch queue size
system.l2cache.prefetcher.pfSpanPage               89                       # number of prefetches that crossed the page
system.membus.snoop_filter.hit_multi_requests            0                       # Number of requests hitting in the snoop filter with multiple (>1) holders of the requested data.
system.membus.snoop_filter.hit_multi_snoops            0                       # Number of snoops hitting in the snoop filter with multiple (>1) holders of the requested data.
system.membus.snoop_filter.hit_single_requests         9507                       # Number of requests hitting in the snoop filter with a single holder of the requested data.
system.membus.snoop_filter.hit_single_snoops            0                       # Number of snoops hitting in the snoop filter with a single holder of the requested data.
system.membus.snoop_filter.tot_requests         23137                       # Total number of requests made to the snoop filter.
system.membus.snoop_filter.tot_snoops               0                       # Total number of snoops made to the snoop filter.
system.membus.pwrStateResidencyTicks::UNDEFINED   1102592400                       # Cumulative time (in ticks) in various power states
system.membus.trans_dist::ReadResp              12309                       # Transaction distribution
system.membus.trans_dist::WritebackDirty         1356                       # Transaction distribution
system.membus.trans_dist::CleanEvict             8151                       # Transaction distribution
system.membus.trans_dist::ReadExReq              1321                       # Transaction distribution
system.membus.trans_dist::ReadExResp             1321                       # Transaction distribution
system.membus.trans_dist::ReadSharedReq         12309                       # Transaction distribution
system.membus.pkt_count_system.l2cache.mem_side::system.mem_ctrl.port        36767                       # Packet count per connected master and slave (bytes)
system.membus.pkt_count_system.l2cache.mem_side::total        36767                       # Packet count per connected master and slave (bytes)
system.membus.pkt_count::total                  36767                       # Packet count per connected master and slave (bytes)
system.membus.pkt_size_system.l2cache.mem_side::system.mem_ctrl.port       959104                       # Cumulative packet size per connected master and slave (bytes)
system.membus.pkt_size_system.l2cache.mem_side::total       959104                       # Cumulative packet size per connected master and slave (bytes)
system.membus.pkt_size::total                  959104                       # Cumulative packet size per connected master and slave (bytes)
system.membus.snoops                                0                       # Total snoops (count)
system.membus.snoopTraffic                          0                       # Total snoop traffic (bytes)
system.membus.snoop_fanout::samples             13630                       # Request fanout histogram
system.membus.snoop_fanout::mean                    0                       # Request fanout histogram
system.membus.snoop_fanout::stdev                   0                       # Request fanout histogram
system.membus.snoop_fanout::underflows              0      0.00%      0.00% # Request fanout histogram
system.membus.snoop_fanout::0                   13630    100.00%    100.00% # Request fanout histogram
system.membus.snoop_fanout::1                       0      0.00%    100.00% # Request fanout histogram
system.membus.snoop_fanout::overflows               0      0.00%    100.00% # Request fanout histogram
system.membus.snoop_fanout::min_value               0                       # Request fanout histogram
system.membus.snoop_fanout::max_value               0                       # Request fanout histogram
system.membus.snoop_fanout::total               13630                       # Request fanout histogram
system.membus.reqLayer2.occupancy            11447794                       # Layer occupancy (ticks)
system.membus.reqLayer2.utilization               1.0                       # Layer utilization (%)
system.membus.respLayer0.occupancy           29567906                       # Layer occupancy (ticks)
system.membus.respLayer0.utilization              2.7                       # Layer utilization (%)
system.l2bus.pwrStateResidencyTicks::UNDEFINED   1102592400                       # Cumulative time (in ticks) in various power states
system.l2bus.trans_dist::ReadResp               17968                       # Transaction distribution
system.l2bus.trans_dist::WritebackDirty          4158                       # Transaction distribution
system.l2bus.trans_dist::CleanEvict             24180                       # Transaction distribution
system.l2bus.trans_dist::HardPFReq                936                       # Transaction distribution
system.l2bus.trans_dist::ReadExReq               2055                       # Transaction distribution
system.l2bus.trans_dist::ReadExResp              2055                       # Transaction distribution
system.l2bus.trans_dist::ReadSharedReq          17968                       # Transaction distribution
system.l2bus.pkt_count_system.cpu.icache.mem_side::system.l2cache.cpu_side         8814                       # Packet count per connected master and slave (bytes)
system.l2bus.pkt_count_system.cpu.dcache.mem_side::system.l2cache.cpu_side        49967                       # Packet count per connected master and slave (bytes)
system.l2bus.pkt_count::total                   58781                       # Packet count per connected master and slave (bytes)
system.l2bus.pkt_size_system.cpu.icache.mem_side::system.l2cache.cpu_side       193152                       # Cumulative packet size per connected master and slave (bytes)
system.l2bus.pkt_size_system.cpu.dcache.mem_side::system.l2cache.cpu_side      1267136                       # Cumulative packet size per connected master and slave (bytes)
system.l2bus.pkt_size::total                  1460288                       # Cumulative packet size per connected master and slave (bytes)
system.l2bus.snoops                             10539                       # Total snoops (count)
system.l2bus.snoopTraffic                       87296                       # Total snoop traffic (bytes)
system.l2bus.snoop_fanout::samples              30554                       # Request fanout histogram
system.l2bus.snoop_fanout::mean              0.014793                       # Request fanout histogram
system.l2bus.snoop_fanout::stdev             0.120998                       # Request fanout histogram
system.l2bus.snoop_fanout::underflows               0      0.00%      0.00% # Request fanout histogram
system.l2bus.snoop_fanout::0                    30103     98.52%     98.52% # Request fanout histogram
system.l2bus.snoop_fanout::1                      450      1.47%    100.00% # Request fanout histogram
system.l2bus.snoop_fanout::2                        1      0.00%    100.00% # Request fanout histogram
system.l2bus.snoop_fanout::overflows                0      0.00%    100.00% # Request fanout histogram
system.l2bus.snoop_fanout::min_value                0                       # Request fanout histogram
system.l2bus.snoop_fanout::max_value                2                       # Request fanout histogram
system.l2bus.snoop_fanout::total                30554                       # Request fanout histogram
system.l2bus.respLayer1.occupancy            20396799                       # Layer occupancy (ticks)
system.l2bus.respLayer1.utilization               1.8                       # Layer utilization (%)
system.l2bus.reqLayer0.occupancy             19171508                       # Layer occupancy (ticks)
system.l2bus.reqLayer0.utilization                1.7                       # Layer utilization (%)
system.l2bus.respLayer0.occupancy             3631599                       # Layer occupancy (ticks)
system.l2bus.respLayer0.utilization               0.3                       # Layer utilization (%)
system.clk_domain.clock                           400                       # Clock period in ticks
system.clk_domain.voltage_domain.voltage            1                       # Voltage in Volts
system.cpu.pwrStateResidencyTicks::ON      1102592400                       # Cumulative time (in ticks) in various power states
system.cpu.icache.pwrStateResidencyTicks::UNDEFINED   1102592400                       # Cumulative time (in ticks) in various power states
system.cpu.icache.demand_hits::.cpu.inst       238907                       # number of demand (read+write) hits
system.cpu.icache.demand_hits::total           238907                       # number of demand (read+write) hits
system.cpu.icache.overall_hits::.cpu.inst       238907                       # number of overall hits
system.cpu.icache.overall_hits::total          238907                       # number of overall hits
system.cpu.icache.demand_misses::.cpu.inst         3753                       # number of demand (read+write) misses
system.cpu.icache.demand_misses::total           3753                       # number of demand (read+write) misses
system.cpu.icache.overall_misses::.cpu.inst         3753                       # number of overall misses
system.cpu.icache.overall_misses::total          3753                       # number of overall misses
system.cpu.icache.demand_miss_latency::.cpu.inst    184372000                       # number of demand (read+write) miss cycles
system.cpu.icache.demand_miss_latency::total    184372000                       # number of demand (read+write) miss cycles
system.cpu.icache.overall_miss_latency::.cpu.inst    184372000                       # number of overall miss cycles
system.cpu.icache.overall_miss_latency::total    184372000                       # number of overall miss cycles
system.cpu.icache.demand_accesses::.cpu.inst       242660                       # number of demand (read+write) accesses
system.cpu.icache.demand_accesses::total       242660                       # number of demand (read+write) accesses
system.cpu.icache.overall_accesses::.cpu.inst       242660                       # number of overall (read+write) accesses
system.cpu.icache.overall_accesses::total       242660                       # number of overall (read+write) accesses
system.cpu.icache.demand_miss_rate::.cpu.inst     0.015466                       # miss rate for demand accesses
system.cpu.icache.demand_miss_rate::total     0.015466                       # miss rate for demand accesses
system.cpu.icache.overall_miss_rate::.cpu.inst     0.015466                       # miss rate for overall accesses
system.cpu.icache.overall_miss_rate::total     0.015466                       # miss rate for overall accesses
system.cpu.icache.demand_avg_miss_latency::.cpu.inst 49126.565414                       # average overall miss latency
system.cpu.icache.demand_avg_miss_latency::total 49126.565414                       # average overall miss latency
system.cpu.icache.overall_avg_miss_latency::.cpu.inst 49126.565414                       # average overall miss latency
system.cpu.icache.overall_avg_miss_latency::total 49126.565414                       # average overall miss latency
system.cpu.icache.blocked_cycles::no_mshrs           86                       # number of cycles access was blocked
system.cpu.icache.blocked_cycles::no_targets            0                       # number of cycles access was blocked
system.cpu.icache.blocked::no_mshrs                 6                       # number of cycles access was blocked
system.cpu.icache.blocked::no_targets               0                       # number of cycles access was blocked
system.cpu.icache.avg_blocked_cycles::no_mshrs    14.333333                       # average number of cycles each access was blocked
system.cpu.icache.avg_blocked_cycles::no_targets          nan                       # average number of cycles each access was blocked
system.cpu.icache.demand_mshr_hits::.cpu.inst          727                       # number of demand (read+write) MSHR hits
system.cpu.icache.demand_mshr_hits::total          727                       # number of demand (read+write) MSHR hits
system.cpu.icache.overall_mshr_hits::.cpu.inst          727                       # number of overall MSHR hits
system.cpu.icache.overall_mshr_hits::total          727                       # number of overall MSHR hits
system.cpu.icache.demand_mshr_misses::.cpu.inst         3026                       # number of demand (read+write) MSHR misses
system.cpu.icache.demand_mshr_misses::total         3026                       # number of demand (read+write) MSHR misses
system.cpu.icache.overall_mshr_misses::.cpu.inst         3026                       # number of overall MSHR misses
system.cpu.icache.overall_mshr_misses::total         3026                       # number of overall MSHR misses
system.cpu.icache.demand_mshr_miss_latency::.cpu.inst    148201200                       # number of demand (read+write) MSHR miss cycles
system.cpu.icache.demand_mshr_miss_latency::total    148201200                       # number of demand (read+write) MSHR miss cycles
system.cpu.icache.overall_mshr_miss_latency::.cpu.inst    148201200                       # number of overall MSHR miss cycles
system.cpu.icache.overall_mshr_miss_latency::total    148201200                       # number of overall MSHR miss cycles
system.cpu.icache.demand_mshr_miss_rate::.cpu.inst     0.012470                       # mshr miss rate for demand accesses
system.cpu.icache.demand_mshr_miss_rate::total     0.012470                       # mshr miss rate for demand accesses
system.cpu.icache.overall_mshr_miss_rate::.cpu.inst     0.012470                       # mshr miss rate for overall accesses
system.cpu.icache.overall_mshr_miss_rate::total     0.012470                       # mshr miss rate for overall accesses
system.cpu.icache.demand_avg_mshr_miss_latency::.cpu.inst 48975.941837                       # average overall mshr miss latency
system.cpu.icache.demand_avg_mshr_miss_latency::total 48975.941837                       # average overall mshr miss latency
system.cpu.icache.overall_avg_mshr_miss_latency::.cpu.inst 48975.941837                       # average overall mshr miss latency
system.cpu.icache.overall_avg_mshr_miss_latency::total 48975.941837                       # average overall mshr miss latency
system.cpu.icache.replacements                   2770                       # number of replacements
system.cpu.icache.ReadReq_hits::.cpu.inst       238907                       # number of ReadReq hits
system.cpu.icache.ReadReq_hits::total          238907                       # number of ReadReq hits
system.cpu.icache.ReadReq_misses::.cpu.inst         3753                       # number of ReadReq misses
system.cpu.icache.ReadReq_misses::total          3753                       # number of ReadReq misses
system.cpu.icache.ReadReq_miss_latency::.cpu.inst    184372000                       # number of ReadReq miss cycles
system.cpu.icache.ReadReq_miss_latency::total    184372000                       # number of ReadReq miss cycles
system.cpu.icache.ReadReq_accesses::.cpu.inst       242660                       # number of ReadReq accesses(hits+misses)
system.cpu.icache.ReadReq_accesses::total       242660                       # number of ReadReq accesses(hits+misses)
system.cpu.icache.ReadReq_miss_rate::.cpu.inst     0.015466                       # miss rate for ReadReq accesses
system.cpu.icache.ReadReq_miss_rate::total     0.015466                       # miss rate for ReadReq accesses
system.cpu.icache.ReadReq_avg_miss_latency::.cpu.inst 49126.565414                       # average ReadReq miss latency
system.cpu.icache.ReadReq_avg_miss_latency::total 49126.565414                       # average ReadReq miss latency
system.cpu.icache.ReadReq_mshr_hits::.cpu.inst          727                       # number of ReadReq MSHR hits
system.cpu.icache.ReadReq_mshr_hits::total          727                       # number of ReadReq MSHR hits
system.cpu.icache.ReadReq_mshr_misses::.cpu.inst         3026                       # number of ReadReq MSHR misses
system.cpu.icache.ReadReq_mshr_misses::total         3026                       # number of ReadReq MSHR misses
system.cpu.icache.ReadReq_mshr_miss_latency::.cpu.inst    148201200                       # number of ReadReq MSHR miss cycles
system.cpu.icache.ReadReq_mshr_miss_latency::total    148201200                       # number of ReadReq MSHR miss cycles
system.cpu.icache.ReadReq_mshr_miss_rate::.cpu.inst     0.012470                       # mshr miss rate for ReadReq accesses
system.cpu.icache.ReadReq_mshr_miss_rate::total     0.012470                       # mshr miss rate for ReadReq accesses
system.cpu.icache.ReadReq_avg_mshr_miss_latency::.cpu.inst 48975.941837                       # average ReadReq mshr miss latency
system.cpu.icache.ReadReq_avg_mshr_miss_latency::total 48975.941837                       # average ReadReq mshr miss latency
system.cpu.icache.prefetcher.pwrStateResidencyTicks::UNDEFINED   1102592400                       # Cumulative time (in ticks) in various power states
system.cpu.icache.tags.pwrStateResidencyTicks::UNDEFINED   1102592400                       # Cumulative time (in ticks) in various power states
system.cpu.icache.tags.tagsinuse           253.484930                       # Cycle average of tags in use
system.cpu.icache.tags.total_refs              228632                       # Total number of references to valid blocks.
system.cpu.icache.tags.sampled_refs              2770                       # Sample count of references to valid blocks.
system.cpu.icache.tags.avg_refs             82.538628                       # Average number of references to valid blocks.
system.cpu.icache.tags.warmup_cycle             66400                       # Cycle when the warmup percentage was hit.
system.cpu.icache.tags.occ_blocks::.cpu.inst   253.484930                       # Average occupied blocks per requestor
system.cpu.icache.tags.occ_percent::.cpu.inst     0.990176                       # Average percentage of cache occupancy
system.cpu.icache.tags.occ_percent::total     0.990176                       # Average percentage of cache occupancy
system.cpu.icache.tags.occ_task_id_blocks::1024          256                       # Occupied blocks per task id
system.cpu.icache.tags.age_task_id_blocks_1024::0           70                       # Occupied blocks per task id
system.cpu.icache.tags.age_task_id_blocks_1024::1          168                       # Occupied blocks per task id
system.cpu.icache.tags.age_task_id_blocks_1024::2           15                       # Occupied blocks per task id
system.cpu.icache.tags.age_task_id_blocks_1024::3            3                       # Occupied blocks per task id
system.cpu.icache.tags.occ_task_id_percent::1024            1                       # Percentage of cache occupancy per task id
system.cpu.icache.tags.tag_accesses            488346                       # Number of tag accesses
system.cpu.icache.tags.data_accesses           488346                       # Number of data accesses
system.cpu.dtb.walker.pwrStateResidencyTicks::UNDEFINED   1102592400                       # Cumulative time (in ticks) in various power states
system.cpu.interrupts.clk_domain.clock           6400                       # Clock period in ticks
system.cpu.itb.walker.pwrStateResidencyTicks::UNDEFINED   1102592400                       # Cumulative time (in ticks) in various power states
system.cpu.dcache.pwrStateResidencyTicks::UNDEFINED   1102592400                       # Cumulative time (in ticks) in various power states
system.cpu.dcache.demand_hits::.cpu.data       683106                       # number of demand (read+write) hits
system.cpu.dcache.demand_hits::total           683106                       # number of demand (read+write) hits
system.cpu.dcache.overall_hits::.cpu.data       683106                       # number of overall hits
system.cpu.dcache.overall_hits::total          683106                       # number of overall hits
system.cpu.dcache.demand_misses::.cpu.data        35224                       # number of demand (read+write) misses
system.cpu.dcache.demand_misses::total          35224                       # number of demand (read+write) misses
system.cpu.dcache.overall_misses::.cpu.data        35224                       # number of overall misses
system.cpu.dcache.overall_misses::total         35224                       # number of overall misses
system.cpu.dcache.demand_miss_latency::.cpu.data   1699059600                       # number of demand (read+write) miss cycles
system.cpu.dcache.demand_miss_latency::total   1699059600                       # number of demand (read+write) miss cycles
system.cpu.dcache.overall_miss_latency::.cpu.data   1699059600                       # number of overall miss cycles
system.cpu.dcache.overall_miss_latency::total   1699059600                       # number of overall miss cycles
system.cpu.dcache.demand_accesses::.cpu.data       718330                       # number of demand (read+write) accesses
system.cpu.dcache.demand_accesses::total       718330                       # number of demand (read+write) accesses
system.cpu.dcache.overall_accesses::.cpu.data       718330                       # number of overall (read+write) accesses
system.cpu.dcache.overall_accesses::total       718330                       # number of overall (read+write) accesses
system.cpu.dcache.demand_miss_rate::.cpu.data     0.049036                       # miss rate for demand accesses
system.cpu.dcache.demand_miss_rate::total     0.049036                       # miss rate for demand accesses
system.cpu.dcache.overall_miss_rate::.cpu.data     0.049036                       # miss rate for overall accesses
system.cpu.dcache.overall_miss_rate::total     0.049036                       # miss rate for overall accesses
system.cpu.dcache.demand_avg_miss_latency::.cpu.data 48235.850556                       # average overall miss latency
system.cpu.dcache.demand_avg_miss_latency::total 48235.850556                       # average overall miss latency
system.cpu.dcache.overall_avg_miss_latency::.cpu.data 48235.850556                       # average overall miss latency
system.cpu.dcache.overall_avg_miss_latency::total 48235.850556                       # average overall miss latency
system.cpu.dcache.blocked_cycles::no_mshrs        30133                       # number of cycles access was blocked
system.cpu.dcache.blocked_cycles::no_targets          138                       # number of cycles access was blocked
system.cpu.dcache.blocked::no_mshrs               780                       # number of cycles access was blocked
system.cpu.dcache.blocked::no_targets               1                       # number of cycles access was blocked
system.cpu.dcache.avg_blocked_cycles::no_mshrs    38.632051                       # average number of cycles each access was blocked
system.cpu.dcache.avg_blocked_cycles::no_targets          138                       # average number of cycles each access was blocked
system.cpu.dcache.unused_prefetches              1770                       # number of HardPF blocks evicted w/o reference
system.cpu.dcache.writebacks::.writebacks         2802                       # number of writebacks
system.cpu.dcache.writebacks::total              2802                       # number of writebacks
system.cpu.dcache.demand_mshr_hits::.cpu.data        22563                       # number of demand (read+write) MSHR hits
system.cpu.dcache.demand_mshr_hits::total        22563                       # number of demand (read+write) MSHR hits
system.cpu.dcache.overall_mshr_hits::.cpu.data        22563                       # number of overall MSHR hits
system.cpu.dcache.overall_mshr_hits::total        22563                       # number of overall MSHR hits
system.cpu.dcache.demand_mshr_misses::.cpu.data        12661                       # number of demand (read+write) MSHR misses
system.cpu.dcache.demand_mshr_misses::total        12661                       # number of demand (read+write) MSHR misses
system.cpu.dcache.overall_mshr_misses::.cpu.data        12661                       # number of overall MSHR misses
system.cpu.dcache.overall_mshr_misses::.cpu.dcache.prefetcher         4336                       # number of overall MSHR misses
system.cpu.dcache.overall_mshr_misses::total        16997                       # number of overall MSHR misses
system.cpu.dcache.demand_mshr_miss_latency::.cpu.data    579428000                       # number of demand (read+write) MSHR miss cycles
system.cpu.dcache.demand_mshr_miss_latency::total    579428000                       # number of demand (read+write) MSHR miss cycles
system.cpu.dcache.overall_mshr_miss_latency::.cpu.data    579428000                       # number of overall MSHR miss cycles
system.cpu.dcache.overall_mshr_miss_latency::.cpu.dcache.prefetcher    250843778                       # number of overall MSHR miss cycles
system.cpu.dcache.overall_mshr_miss_latency::total    830271778                       # number of overall MSHR miss cycles
system.cpu.dcache.demand_mshr_miss_rate::.cpu.data     0.017626                       # mshr miss rate for demand accesses
system.cpu.dcache.demand_mshr_miss_rate::total     0.017626                       # mshr miss rate for demand accesses
system.cpu.dcache.overall_mshr_miss_rate::.cpu.data     0.017626                       # mshr miss rate for overall accesses
system.cpu.dcache.overall_mshr_miss_rate::.cpu.dcache.prefetcher          inf                       # mshr miss rate for overall accesses
system.cpu.dcache.overall_mshr_miss_rate::total     0.023662                       # mshr miss rate for overall accesses
system.cpu.dcache.demand_avg_mshr_miss_latency::.cpu.data 45764.789511                       # average overall mshr miss latency
system.cpu.dcache.demand_avg_mshr_miss_latency::total 45764.789511                       # average overall mshr miss latency
system.cpu.dcache.overall_avg_mshr_miss_latency::.cpu.data 45764.789511                       # average overall mshr miss latency
system.cpu.dcache.overall_avg_mshr_miss_latency::.cpu.dcache.prefetcher 57851.424815                       # average overall mshr miss latency
system.cpu.dcache.overall_avg_mshr_miss_latency::total 48848.136612                       # average overall mshr miss latency
system.cpu.dcache.replacements                  15973                       # number of replacements
system.cpu.dcache.ReadReq_hits::.cpu.data       509996                       # number of ReadReq hits
system.cpu.dcache.ReadReq_hits::total          509996                       # number of ReadReq hits
system.cpu.dcache.ReadReq_misses::.cpu.data        33133                       # number of ReadReq misses
system.cpu.dcache.ReadReq_misses::total         33133                       # number of ReadReq misses
system.cpu.dcache.ReadReq_miss_latency::.cpu.data   1594778800                       # number of ReadReq miss cycles
system.cpu.dcache.ReadReq_miss_latency::total   1594778800                       # number of ReadReq miss cycles
system.cpu.dcache.ReadReq_accesses::.cpu.data       543129                       # number of ReadReq accesses(hits+misses)
system.cpu.dcache.ReadReq_accesses::total       543129                       # number of ReadReq accesses(hits+misses)
system.cpu.dcache.ReadReq_miss_rate::.cpu.data     0.061004                       # miss rate for ReadReq accesses
system.cpu.dcache.ReadReq_miss_rate::total     0.061004                       # miss rate for ReadReq accesses
system.cpu.dcache.ReadReq_avg_miss_latency::.cpu.data 48132.641173                       # average ReadReq miss latency
system.cpu.dcache.ReadReq_avg_miss_latency::total 48132.641173                       # average ReadReq miss latency
system.cpu.dcache.ReadReq_mshr_hits::.cpu.data        22527                       # number of ReadReq MSHR hits
system.cpu.dcache.ReadReq_mshr_hits::total        22527                       # number of ReadReq MSHR hits
system.cpu.dcache.ReadReq_mshr_misses::.cpu.data        10606                       # number of ReadReq MSHR misses
system.cpu.dcache.ReadReq_mshr_misses::total        10606                       # number of ReadReq MSHR misses
system.cpu.dcache.ReadReq_mshr_miss_latency::.cpu.data    478834400                       # number of ReadReq MSHR miss cycles
system.cpu.dcache.ReadReq_mshr_miss_latency::total    478834400                       # number of ReadReq MSHR miss cycles
system.cpu.dcache.ReadReq_mshr_miss_rate::.cpu.data     0.019528                       # mshr miss rate for ReadReq accesses
system.cpu.dcache.ReadReq_mshr_miss_rate::total     0.019528                       # mshr miss rate for ReadReq accesses
system.cpu.dcache.ReadReq_avg_mshr_miss_latency::.cpu.data 45147.501414                       # average ReadReq mshr miss latency
system.cpu.dcache.ReadReq_avg_mshr_miss_latency::total 45147.501414                       # average ReadReq mshr miss latency
system.cpu.dcache.WriteReq_hits::.cpu.data       173110                       # number of WriteReq hits
system.cpu.dcache.WriteReq_hits::total         173110                       # number of WriteReq hits
system.cpu.dcache.WriteReq_misses::.cpu.data         2091                       # number of WriteReq misses
system.cpu.dcache.WriteReq_misses::total         2091                       # number of WriteReq misses
system.cpu.dcache.WriteReq_miss_latency::.cpu.data    104280800                       # number of WriteReq miss cycles
system.cpu.dcache.WriteReq_miss_latency::total    104280800                       # number of WriteReq miss cycles
system.cpu.dcache.WriteReq_accesses::.cpu.data       175201                       # number of WriteReq accesses(hits+misses)
system.cpu.dcache.WriteReq_accesses::total       175201                       # number of WriteReq accesses(hits+misses)
system.cpu.dcache.WriteReq_miss_rate::.cpu.data     0.011935                       # miss rate for WriteReq accesses
system.cpu.dcache.WriteReq_miss_rate::total     0.011935                       # miss rate for WriteReq accesses
system.cpu.dcache.WriteReq_avg_miss_latency::.cpu.data 49871.257771                       # average WriteReq miss latency
system.cpu.dcache.WriteReq_avg_miss_latency::total 49871.257771                       # average WriteReq miss latency
system.cpu.dcache.WriteReq_mshr_hits::.cpu.data           36                       # number of WriteReq MSHR hits
system.cpu.dcache.WriteReq_mshr_hits::total           36                       # number of WriteReq MSHR hits
system.cpu.dcache.WriteReq_mshr_misses::.cpu.data         2055                       # number of WriteReq MSHR misses
system.cpu.dcache.WriteReq_mshr_misses::total         2055                       # number of WriteReq MSHR misses
system.cpu.dcache.WriteReq_mshr_miss_latency::.cpu.data    100593600                       # number of WriteReq MSHR miss cycles
[...]
system.l2cache.demand_mshr_miss_rate::.cpu.inst     0.423684                       # mshr miss rate for demand accesses
system.l2cache.demand_mshr_miss_rate::.cpu.data     0.509804                       # mshr miss rate for demand accesses
system.l2cache.demand_mshr_miss_rate::.cpu.dcache.prefetcher     0.809524                       # mshr miss rate for demand accesses
system.l2cache.demand_mshr_miss_rate::total     0.462094                       # mshr miss rate for demand accesses
system.l2cache.overall_mshr_miss_rate::.cpu.inst     0.423684                       # mshr miss rate for overall accesses
system.l2cache.overall_mshr_miss_rate::.cpu.data     0.509804                       # mshr miss rate for overall accesses
system.l2cache.overall_mshr_miss_rate::.cpu.dcache.prefetcher     0.809524                       # mshr miss rate for overall accesses
system.l2cache.overall_mshr_miss_rate::total     0.462094                       # mshr miss rate for overall accesses
system.l2cache.demand_avg_mshr_miss_latency::.cpu.inst 58248.447205                       # average overall mshr miss latency
system.l2cache.demand_avg_mshr_miss_latency::.cpu.data 59717.948718                       # average overall mshr miss latency
system.l2cache.demand_avg_mshr_miss_latency::.cpu.dcache.prefetcher 59034.352941                       # average overall mshr miss latency
system.l2cache.demand_avg_mshr_miss_latency::total 58748.375000                       # average overall mshr miss latency
system.l2cache.overall_avg_mshr_miss_latency::.cpu.inst 58248.447205                       # average overall mshr miss latency
system.l2cache.overall_avg_mshr_miss_latency::.cpu.data 59717.948718                       # average overall mshr miss latency
system.l2cache.overall_avg_mshr_miss_latency::.cpu.dcache.prefetcher 59034.352941                       # average overall mshr miss latency
system.l2cache.overall_avg_mshr_miss_latency::total 58748.375000                       # average overall mshr miss latency
system.l2cache.replacements                       260                       # number of replacements
system.l2cache.WritebackDirty_hits::.writebacks           46                       # number of WritebackDirty hits
system.l2cache.WritebackDirty_hits::total           46                       # number of WritebackDirty hits
system.l2cache.WritebackDirty_accesses::.writebacks           46                       # number of WritebackDirty accesses(hits+misses)
system.l2cache.WritebackDirty_accesses::total           46                       # number of WritebackDirty accesses(hits+misses)
system.l2cache.CleanEvict_mshr_misses::.writebacks            5                       # number of CleanEvict MSHR misses
system.l2cache.CleanEvict_mshr_misses::total            5                       # number of CleanEvict MSHR misses
system.l2cache.CleanEvict_mshr_miss_rate::.writebacks          inf                       # mshr miss rate for CleanEvict accesses
system.l2cache.CleanEvict_mshr_miss_rate::total          inf                       # mshr miss rate for CleanEvict accesses
system.l2cache.UpgradeReq_hits::.cpu.data            1                       # number of UpgradeReq hits
system.l2cache.UpgradeReq_hits::total               1                       # number of UpgradeReq hits
system.l2cache.UpgradeReq_misses::.cpu.data            1                       # number of UpgradeReq misses
system.l2cache.UpgradeReq_misses::total             1                       # number of UpgradeReq misses
system.l2cache.UpgradeReq_accesses::.cpu.data            2                       # number of UpgradeReq accesses(hits+misses)
system.l2cache.UpgradeReq_accesses::total            2                       # number of UpgradeReq accesses(hits+misses)
system.l2cache.UpgradeReq_miss_rate::.cpu.data     0.500000                       # miss rate for UpgradeReq accesses
system.l2cache.UpgradeReq_miss_rate::total     0.500000                       # miss rate for UpgradeReq accesses
system.l2cache.UpgradeReq_mshr_misses::.cpu.data            1                       # number of UpgradeReq MSHR misses
system.l2cache.UpgradeReq_mshr_misses::total            1                       # number of UpgradeReq MSHR misses
system.l2cache.UpgradeReq_mshr_miss_latency::.cpu.data        11600                       # number of UpgradeReq MSHR miss cycles
system.l2cache.UpgradeReq_mshr_miss_latency::total        11600                       # number of UpgradeReq MSHR miss cycles
system.l2cache.UpgradeReq_mshr_miss_rate::.cpu.data     0.500000                       # mshr miss rate for UpgradeReq accesses
system.l2cache.UpgradeReq_mshr_miss_rate::total     0.500000                       # mshr miss rate for UpgradeReq accesses
system.l2cache.UpgradeReq_avg_mshr_miss_latency::.cpu.data        11600                       # average UpgradeReq mshr miss latency
system.l2cache.UpgradeReq_avg_mshr_miss_latency::total        11600                       # average UpgradeReq mshr miss latency
system.l2cache.ReadExReq_hits::.cpu.data            4                       # number of ReadExReq hits
system.l2cache.ReadExReq_hits::total                4                       # number of ReadExReq hits
system.l2cache.ReadExReq_misses::.cpu.data            4                       # number of ReadExReq misses
system.l2cache.ReadExReq_misses::total              4                       # number of ReadExReq misses
system.l2cache.ReadExReq_miss_latency::.cpu.data       324800                       # number of ReadExReq miss cycles
system.l2cache.ReadExReq_miss_latency::total       324800                       # number of ReadExReq miss cycles
system.l2cache.ReadExReq_accesses::.cpu.data            8                       # number of ReadExReq accesses(hits+misses)
system.l2cache.ReadExReq_accesses::total            8                       # number of ReadExReq accesses(hits+misses)
system.l2cache.ReadExReq_miss_rate::.cpu.data     0.500000                       # miss rate for ReadExReq accesses
system.l2cache.ReadExReq_miss_rate::total     0.500000                       # miss rate for ReadExReq accesses
system.l2cache.ReadExReq_avg_miss_latency::.cpu.data        81200                       # average ReadExReq miss latency
system.l2cache.ReadExReq_avg_miss_latency::total        81200                       # average ReadExReq miss latency
system.l2cache.ReadExReq_mshr_misses::.cpu.data            4                       # number of ReadExReq MSHR misses
system.l2cache.ReadExReq_mshr_misses::total            4                       # number of ReadExReq MSHR misses
system.l2cache.ReadExReq_mshr_miss_latency::.cpu.data       292800                       # number of ReadExReq MSHR miss cycles
system.l2cache.ReadExReq_mshr_miss_latency::total       292800                       # number of ReadExReq MSHR miss cycles
system.l2cache.ReadExReq_mshr_miss_rate::.cpu.data     0.500000                       # mshr miss rate for ReadExReq accesses
system.l2cache.ReadExReq_mshr_miss_rate::total     0.500000                       # mshr miss rate for ReadExReq accesses
system.l2cache.ReadExReq_avg_mshr_miss_latency::.cpu.data        73200                       # average ReadExReq mshr miss latency
system.l2cache.ReadExReq_avg_mshr_miss_latency::total        73200                       # average ReadExReq mshr miss latency
system.l2cache.ReadSharedReq_hits::.cpu.inst          219                       # number of ReadSharedReq hits
system.l2cache.ReadSharedReq_hits::.cpu.data           71                       # number of ReadSharedReq hits
system.l2cache.ReadSharedReq_hits::.cpu.dcache.prefetcher            4                       # number of ReadSharedReq hits
system.l2cache.ReadSharedReq_hits::total          294                       # number of ReadSharedReq hits
system.l2cache.ReadSharedReq_misses::.cpu.inst          161                       # number of ReadSharedReq misses
system.l2cache.ReadSharedReq_misses::.cpu.data           74                       # number of ReadSharedReq misses
system.l2cache.ReadSharedReq_misses::.cpu.dcache.prefetcher           17                       # number of ReadSharedReq misses
system.l2cache.ReadSharedReq_misses::total          252                       # number of ReadSharedReq misses
system.l2cache.ReadSharedReq_miss_latency::.cpu.inst     10658000                       # number of ReadSharedReq miss cycles
system.l2cache.ReadSharedReq_miss_latency::.cpu.data      4957200                       # number of ReadSharedReq miss cycles
system.l2cache.ReadSharedReq_miss_latency::.cpu.dcache.prefetcher      1139584                       # number of ReadSharedReq miss cycles
system.l2cache.ReadSharedReq_miss_latency::total     16754784                       # number of ReadSharedReq miss cycles
system.l2cache.ReadSharedReq_accesses::.cpu.inst          380                       # number of ReadSharedReq accesses(hits+misses)
system.l2cache.ReadSharedReq_accesses::.cpu.data          145                       # number of ReadSharedReq accesses(hits+misses)
system.l2cache.ReadSharedReq_accesses::.cpu.dcache.prefetcher           21                       # number of ReadSharedReq accesses(hits+misses)
system.l2cache.ReadSharedReq_accesses::total          546                       # number of ReadSharedReq accesses(hits+misses)
system.l2cache.ReadSharedReq_miss_rate::.cpu.inst     0.423684                       # miss rate for ReadSharedReq accesses
system.l2cache.ReadSharedReq_miss_rate::.cpu.data     0.510345                       # miss rate for ReadSharedReq accesses
system.l2cache.ReadSharedReq_miss_rate::.cpu.dcache.prefetcher     0.809524                       # miss rate for ReadSharedReq accesses
system.l2cache.ReadSharedReq_miss_rate::total     0.461538                       # miss rate for ReadSharedReq accesses
system.l2cache.ReadSharedReq_avg_miss_latency::.cpu.inst 66198.757764                       # average ReadSharedReq miss latency
system.l2cache.ReadSharedReq_avg_miss_latency::.cpu.data 66989.189189                       # average ReadSharedReq miss latency
system.l2cache.ReadSharedReq_avg_miss_latency::.cpu.dcache.prefetcher 67034.352941                       # average ReadSharedReq miss latency
system.l2cache.ReadSharedReq_avg_miss_latency::total 66487.238095                       # average ReadSharedReq miss latency
system.l2cache.ReadSharedReq_mshr_misses::.cpu.inst          161                       # number of ReadSharedReq MSHR misses
system.l2cache.ReadSharedReq_mshr_misses::.cpu.data           74                       # number of ReadSharedReq MSHR misses
system.l2cache.ReadSharedReq_mshr_misses::.cpu.dcache.prefetcher           17                       # number of ReadSharedReq MSHR misses
system.l2cache.ReadSharedReq_mshr_misses::total          252                       # number of ReadSharedReq MSHR misses
system.l2cache.ReadSharedReq_mshr_miss_latency::.cpu.inst      9378000                       # number of ReadSharedReq MSHR miss cycles
system.l2cache.ReadSharedReq_mshr_miss_latency::.cpu.data      4365200                       # number of ReadSharedReq MSHR miss cycles
system.l2cache.ReadSharedReq_mshr_miss_latency::.cpu.dcache.prefetcher      1003584                       # number of ReadSharedReq MSHR miss cycles
system.l2cache.ReadSharedReq_mshr_miss_latency::total     14746784                       # number of ReadSharedReq MSHR miss cycles
system.l2cache.ReadSharedReq_mshr_miss_rate::.cpu.inst     0.423684                       # mshr miss rate for ReadSharedReq accesses
system.l2cache.ReadSharedReq_mshr_miss_rate::.cpu.data     0.510345                       # mshr miss rate for ReadSharedReq accesses
system.l2cache.ReadSharedReq_mshr_miss_rate::.cpu.dcache.prefetcher     0.809524                       # mshr miss rate for ReadSharedReq accesses
system.l2cache.ReadSharedReq_mshr_miss_rate::total     0.461538                       # mshr miss rate for ReadSharedReq accesses
system.l2cache.ReadSharedReq_avg_mshr_miss_latency::.cpu.inst 58248.447205                       # average ReadSharedReq mshr miss latency
system.l2cache.ReadSharedReq_avg_mshr_miss_latency::.cpu.data 58989.189189                       # average ReadSharedReq mshr miss latency
system.l2cache.ReadSharedReq_avg_mshr_miss_latency::.cpu.dcache.prefetcher 59034.352941                       # average ReadSharedReq mshr miss latency
system.l2cache.ReadSharedReq_avg_mshr_miss_latency::total 58518.984127                       # average ReadSharedReq mshr miss latency
system.l2cache.prefetcher.pwrStateResidencyTicks::UNDEFINED     28460400                       # Cumulative time (in ticks) in various power states
system.l2cache.tags.pwrStateResidencyTicks::UNDEFINED     28460400                       # Cumulative time (in ticks) in various power states
system.l2cache.tags.tagsinuse                    4096                       # Cycle average of tags in use
system.l2cache.tags.total_refs                  13670                       # Total number of references to valid blocks.
system.l2cache.tags.sampled_refs                 4356                       # Sample count of references to valid blocks.
system.l2cache.tags.avg_refs                 3.138200                       # Average number of references to valid blocks.
system.l2cache.tags.warmup_cycle                    0                       # Cycle when the warmup percentage was hit.
system.l2cache.tags.occ_blocks::.writebacks    39.267150                       # Average occupied blocks per requestor
system.l2cache.tags.occ_blocks::.cpu.inst  1167.946244                       # Average occupied blocks per requestor
system.l2cache.tags.occ_blocks::.cpu.data  1822.585753                       # Average occupied blocks per requestor
system.l2cache.tags.occ_blocks::.cpu.dcache.prefetcher   961.532682                       # Average occupied blocks per requestor
system.l2cache.tags.occ_blocks::.l2cache.prefetcher   104.668170                       # Average occupied blocks per requestor
system.l2cache.tags.occ_percent::.writebacks     0.009587                       # Average percentage of cache occupancy
system.l2cache.tags.occ_percent::.cpu.inst     0.285143                       # Average percentage of cache occupancy
system.l2cache.tags.occ_percent::.cpu.data     0.444967                       # Average percentage of cache occupancy
system.l2cache.tags.occ_percent::.cpu.dcache.prefetcher     0.234749                       # Average percentage of cache occupancy
system.l2cache.tags.occ_percent::.l2cache.prefetcher     0.025554                       # Average percentage of cache occupancy
system.l2cache.tags.occ_percent::total              1                       # Average percentage of cache occupancy
system.l2cache.tags.occ_task_id_blocks::1022         1020                       # Occupied blocks per task id
system.l2cache.tags.occ_task_id_blocks::1024         3076                       # Occupied blocks per task id
system.l2cache.tags.age_task_id_blocks_1022::0            7                       # Occupied blocks per task id
system.l2cache.tags.age_task_id_blocks_1022::1          114                       # Occupied blocks per task id
system.l2cache.tags.age_task_id_blocks_1022::2          897                       # Occupied blocks per task id
system.l2cache.tags.age_task_id_blocks_1022::3            2                       # Occupied blocks per task id
system.l2cache.tags.age_task_id_blocks_1024::0          165                       # Occupied blocks per task id
system.l2cache.tags.age_task_id_blocks_1024::1          806                       # Occupied blocks per task id
system.l2cache.tags.age_task_id_blocks_1024::2         2063                       # Occupied blocks per task id
system.l2cache.tags.age_task_id_blocks_1024::3           42                       # Occupied blocks per task id
system.l2cache.tags.occ_task_id_percent::1022     0.249023                       # Percentage of cache occupancy per task id
system.l2cache.tags.occ_task_id_percent::1024     0.750977                       # Percentage of cache occupancy per task id
system.l2cache.tags.tag_accesses                 9116                       # Number of tag accesses
system.l2cache.tags.data_accesses                9116                       # Number of data accesses
system.mem_ctrl.pwrStateResidencyTicks::UNDEFINED     28460400                       # Cumulative time (in ticks) in various power states
system.mem_ctrl.bytes_read::.cpu.inst           10240                       # Number of bytes read from this memory
system.mem_ctrl.bytes_read::.cpu.data            4992                       # Number of bytes read from this memory
system.mem_ctrl.bytes_read::.cpu.dcache.prefetcher         1088                       # Number of bytes read from this memory
system.mem_ctrl.bytes_read::total               16320                       # Number of bytes read from this memory
system.mem_ctrl.bytes_inst_read::.cpu.inst        10240                       # Number of instructions bytes read from this memory
system.mem_ctrl.bytes_inst_read::total          10240                       # Number of instructions bytes read from this memory
system.mem_ctrl.bytes_written::.writebacks          960                       # Number of bytes written to this memory
system.mem_ctrl.bytes_written::total              960                       # Number of bytes written to this memory
system.mem_ctrl.num_reads::.cpu.inst              160                       # Number of read requests responded to by this memory
system.mem_ctrl.num_reads::.cpu.data               78                       # Number of read requests responded to by this memory
system.mem_ctrl.num_reads::.cpu.dcache.prefetcher           17                       # Number of read requests responded to by this memory
system.mem_ctrl.num_reads::total                  255                       # Number of read requests responded to by this memory
system.mem_ctrl.num_writes::.writebacks            15                       # Number of write requests responded to by this memory
system.mem_ctrl.num_writes::total                  15                       # Number of write requests responded to by this memory
system.mem_ctrl.bw_read::.cpu.inst          359798176                       # Total read bandwidth from this memory (bytes/s)
system.mem_ctrl.bw_read::.cpu.data          175401611                       # Total read bandwidth from this memory (bytes/s)
system.mem_ctrl.bw_read::.cpu.dcache.prefetcher     38228556                       # Total read bandwidth from this memory (bytes/s)
system.mem_ctrl.bw_read::total              573428343                       # Total read bandwidth from this memory (bytes/s)
system.mem_ctrl.bw_inst_read::.cpu.inst     359798176                       # Instruction read bandwidth from this memory (bytes/s)
system.mem_ctrl.bw_inst_read::total         359798176                       # Instruction read bandwidth from this memory (bytes/s)
system.mem_ctrl.bw_write::.writebacks        33731079                       # Write bandwidth from this memory (bytes/s)
system.mem_ctrl.bw_write::total              33731079                       # Write bandwidth from this memory (bytes/s)
system.mem_ctrl.bw_total::.writebacks        33731079                       # Total bandwidth to/from this memory (bytes/s)
system.mem_ctrl.bw_total::.cpu.inst         359798176                       # Total bandwidth to/from this memory (bytes/s)
system.mem_ctrl.bw_total::.cpu.data         175401611                       # Total bandwidth to/from this memory (bytes/s)
system.mem_ctrl.bw_total::.cpu.dcache.prefetcher     38228556                       # Total bandwidth to/from this memory (bytes/s)
system.mem_ctrl.bw_total::total             607159422                       # Total bandwidth to/from this memory (bytes/s)

---------- End Simulation Statistics   ----------
