
---------- Begin Simulation Statistics ----------
final_tick                                 1284784000                       # Number of ticks from beginning of simulation (restored from checkpoints and never reset)
host_inst_rate                                 162182                       # Simulator instruction rate (inst/s)
host_mem_usage                                4422496                       # Number of bytes of host memory used
host_op_rate                                   292547                       # Simulator op (including micro ops) rate (op/s)
host_seconds                                    14.82                       # Real time elapsed on the host
host_tick_rate                               86698865                       # Simulator tick rate (ticks/s)
sim_freq                                 1000000000000                       # Frequency of simulated ticks
sim_insts                                     2403350                       # Number of instructions simulated
sim_ops                                       4335235                       # Number of ops (including micro ops) simulated
sim_seconds                                  0.001285                       # Number of seconds simulated
sim_ticks                                  1284784000                       # Number of ticks simulated
system.cpu.branchPred.BTBCorrect                    0                       # Number of correct BTB predictions (this stat may not work properly.
system.cpu.branchPred.BTBHitPct              0.000000                       # BTB Hit Percentage
system.cpu.branchPred.BTBHits                       0                       # Number of BTB hits
system.cpu.branchPred.BTBLookups               524442                       # Number of BTB lookups
system.cpu.branchPred.RASInCorrect                  7                       # Number of incorrect RAS predictions.
system.cpu.branchPred.condIncorrect             25963                       # Number of conditional branches incorrect
system.cpu.branchPred.condPredicted            535027                       # Number of conditional branches predicted
system.cpu.branchPred.indirectHits             293333                       # Number of indirect target hits.
system.cpu.branchPred.indirectLookups          524442                       # Number of indirect predictor lookups.
system.cpu.branchPred.indirectMisses           231109                       # Number of indirect misses.
system.cpu.branchPred.lookups                  592289                       # Number of BP lookups
system.cpu.branchPred.usedRAS                   23029                       # Number of times the RAS was used to get a target.
system.cpu.branchPredindirectMispredicted        14395                       # Number of mispredicted indirect branches.
system.cpu.cc_regfile_reads                   2840279                       # number of cc regfile reads
system.cpu.cc_regfile_writes                  2083089                       # number of cc regfile writes
system.cpu.commit.amos                              0                       # Number of atomic instructions committed
system.cpu.commit.branchMispredicts             26067                       # The number of times a branch was mispredicted
system.cpu.commit.branches                     447424                       # Number of branches committed
system.cpu.commit.bw_lim_events                718611                       # number cycles where commit BW limit reached
system.cpu.commit.commitNonSpecStalls             761                       # The number of times commit has been forced to stall to communicate backwards
system.cpu.commit.commitSquashedInsts          882461                       # The number of squashed insts skipped by commit
system.cpu.commit.committedInsts              2403350                       # Number of instructions committed
system.cpu.commit.committedOps                4335235                       # Number of ops (including micro ops) committed
system.cpu.commit.committed_per_cycle::samples      2798349                       # Number of insts commited each cycle
system.cpu.commit.committed_per_cycle::mean     1.549212                       # Number of insts commited each cycle
system.cpu.commit.committed_per_cycle::stdev     1.724332                       # Number of insts commited each cycle
system.cpu.commit.committed_per_cycle::underflows            0      0.00%      0.00% # Number of insts commited each cycle
system.cpu.commit.committed_per_cycle::0      1386135     49.53%     49.53% # Number of insts commited each cycle
system.cpu.commit.committed_per_cycle::1       198235      7.08%     56.62% # Number of insts commited each cycle
system.cpu.commit.committed_per_cycle::2       223548      7.99%     64.61% # Number of insts commited each cycle
system.cpu.commit.committed_per_cycle::3       271820      9.71%     74.32% # Number of insts commited each cycle
system.cpu.commit.committed_per_cycle::4       718611     25.68%    100.00% # Number of insts commited each cycle
system.cpu.commit.committed_per_cycle::overflows            0      0.00%    100.00% # Number of insts commited each cycle
system.cpu.commit.committed_per_cycle::min_value            0                       # Number of insts commited each cycle
system.cpu.commit.committed_per_cycle::max_value            4                       # Number of insts commited each cycle
system.cpu.commit.committed_per_cycle::total      2798349                       # Number of insts commited each cycle
system.cpu.commit.fp_insts                     116653                       # Number of committed floating point instructions.
system.cpu.commit.function_calls                21143                       # Number of function calls committed.
system.cpu.commit.int_insts                   4244578                       # Number of committed integer instructions.
system.cpu.commit.loads                        566571                       # Number of loads committed
system.cpu.commit.membars                           1                       # Number of memory barriers committed
system.cpu.commit.op_class_0::No_OpClass        25947      0.60%      0.60% # Class of committed instruction
system.cpu.commit.op_class_0::IntAlu          3397830     78.38%     78.98% # Class of committed instruction
system.cpu.commit.op_class_0::IntMult              27      0.00%     78.98% # Class of committed instruction
system.cpu.commit.op_class_0::IntDiv            36064      0.83%     79.81% # Class of committed instruction
system.cpu.commit.op_class_0::FloatAdd           2872      0.07%     79.87% # Class of committed instruction
system.cpu.commit.op_class_0::FloatCmp              0      0.00%     79.87% # Class of committed instruction
system.cpu.commit.op_class_0::FloatCvt           1248      0.03%     79.90% # Class of committed instruction
system.cpu.commit.op_class_0::FloatMult             0      0.00%     79.90% # Class of committed instruction
system.cpu.commit.op_class_0::FloatMultAcc            0      0.00%     79.90% # Class of committed instruction
system.cpu.commit.op_class_0::FloatDiv              0      0.00%     79.90% # Class of committed instruction
system.cpu.commit.op_class_0::FloatMisc             0      0.00%     79.90% # Class of committed instruction
system.cpu.commit.op_class_0::FloatSqrt             0      0.00%     79.90% # Class of committed instruction
system.cpu.commit.op_class_0::SimdAdd            6238      0.14%     80.05% # Class of committed instruction
system.cpu.commit.op_class_0::SimdAddAcc            0      0.00%     80.05% # Class of committed instruction
system.cpu.commit.op_class_0::SimdAlu           35250      0.81%     80.86% # Class of committed instruction
system.cpu.commit.op_class_0::SimdCmp              36      0.00%     80.86% # Class of committed instruction
system.cpu.commit.op_class_0::SimdCvt           18470      0.43%     81.29% # Class of committed instruction
system.cpu.commit.op_class_0::SimdMisc          12844      0.30%     81.58% # Class of committed instruction
system.cpu.commit.op_class_0::SimdMult              0      0.00%     81.58% # Class of committed instruction
system.cpu.commit.op_class_0::SimdMultAcc            0      0.00%     81.58% # Class of committed instruction
system.cpu.commit.op_class_0::SimdShift          1082      0.02%     81.61% # Class of committed instruction
system.cpu.commit.op_class_0::SimdShiftAcc            0      0.00%     81.61% # Class of committed instruction
system.cpu.commit.op_class_0::SimdDiv               0      0.00%     81.61% # Class of committed instruction
system.cpu.commit.op_class_0::SimdSqrt              0      0.00%     81.61% # Class of committed instruction
system.cpu.commit.op_class_0::SimdFloatAdd            0      0.00%     81.61% # Class of committed instruction
system.cpu.commit.op_class_0::SimdFloatAlu            0      0.00%     81.61% # Class of committed instruction
system.cpu.commit.op_class_0::SimdFloatCmp            0      0.00%     81.61% # Class of committed instruction
system.cpu.commit.op_class_0::SimdFloatCvt            0      0.00%     81.61% # Class of committed instruction
system.cpu.commit.op_class_0::SimdFloatDiv            0      0.00%     81.61% # Class of committed instruction
system.cpu.commit.op_class_0::SimdFloatMisc            0      0.00%     81.61% # Class of committed instruction
system.cpu.commit.op_class_0::SimdFloatMult            0      0.00%     81.61% # Class of committed instruction
system.cpu.commit.op_class_0::SimdFloatMultAcc            0      0.00%     81.61% # Class of committed instruction
system.cpu.commit.op_class_0::SimdFloatSqrt            0      0.00%     81.61% # Class of committed instruction
system.cpu.commit.op_class_0::SimdReduceAdd            0      0.00%     81.61% # Class of committed instruction
system.cpu.commit.op_class_0::SimdReduceAlu            0      0.00%     81.61% # Class of committed instruction
system.cpu.commit.op_class_0::SimdReduceCmp            0      0.00%     81.61% # Class of committed instruction
system.cpu.commit.op_class_0::SimdFloatReduceAdd            0      0.00%     81.61% # Class of committed instruction
system.cpu.commit.op_class_0::SimdFloatReduceCmp            0      0.00%     81.61% # Class of committed instruction
system.cpu.commit.op_class_0::SimdAes               0      0.00%     81.61% # Class of committed instruction
system.cpu.commit.op_class_0::SimdAesMix            0      0.00%     81.61% # Class of committed instruction
system.cpu.commit.op_class_0::SimdSha1Hash            0      0.00%     81.61% # Class of committed instruction
system.cpu.commit.op_class_0::SimdSha1Hash2            0      0.00%     81.61% # Class of committed instruction
system.cpu.commit.op_class_0::SimdSha256Hash            0      0.00%     81.61% # Class of committed instruction
system.cpu.commit.op_class_0::SimdSha256Hash2            0      0.00%     81.61% # Class of committed instruction
system.cpu.commit.op_class_0::SimdShaSigma2            0      0.00%     81.61% # Class of committed instruction
system.cpu.commit.op_class_0::SimdShaSigma3            0      0.00%     81.61% # Class of committed instruction
system.cpu.commit.op_class_0::SimdPredAlu            0      0.00%     81.61% # Class of committed instruction
system.cpu.commit.op_class_0::MemRead          540967     12.48%     94.09% # Class of committed instruction
system.cpu.commit.op_class_0::MemWrite         218561      5.04%     99.13% # Class of committed instruction
system.cpu.commit.op_class_0::FloatMemRead        25604      0.59%     99.72% # Class of committed instruction
system.cpu.commit.op_class_0::FloatMemWrite        12195      0.28%    100.00% # Class of committed instruction
system.cpu.commit.op_class_0::IprAccess             0      0.00%    100.00% # Class of committed instruction
system.cpu.commit.op_class_0::InstPrefetch            0      0.00%    100.00% # Class of committed instruction
system.cpu.commit.op_class_0::total           4335235                       # Class of committed instruction
system.cpu.commit.refs                         797327                       # Number of memory references committed
system.cpu.commit.swp_count                         0                       # Number of s/w prefetches committed
system.cpu.commit.vec_insts                         0                       # Number of committed Vector instructions.
system.cpu.committedInsts                     2403350                       # Number of Instructions Simulated
system.cpu.committedOps                       4335235                       # Number of Ops (including micro ops) Simulated
system.cpu.cpi                               1.336452                       # CPI: Cycles Per Instruction
system.cpu.cpi_total                         1.336452                       # CPI: Total CPI of All Threads
system.cpu.dcache.prefetcher.num_hwpf_issued        11601                       # number of hwpf issued
system.cpu.dcache.prefetcher.pfBufferHit        39066                       # number of redundant prefetches already in prefetch queue
system.cpu.dcache.prefetcher.pfIdentified        60186                       # number of prefetch candidates identified
system.cpu.dcache.prefetcher.pfInCache              0                       # number of redundant prefetches already in cache/mshr dropped
system.cpu.dcache.prefetcher.pfRemovedFull            0                       # number of prefetches dropped due to prefetch queue size
system.cpu.dcache.prefetcher.pfSpanPage          4878                       # number of prefetches that crossed the page
system.cpu.decode.BlockedCycles               1192585                       # Number of cycles decode is blocked
system.cpu.decode.DecodedInsts                5439963                       # Number of instructions handled by decode
system.cpu.decode.IdleCycles                   380206                       # Number of cycles decode is idle
system.cpu.decode.RunCycles                   1346453                       # Number of cycles decode is running
system.cpu.decode.SquashCycles                  26131                       # Number of cycles decode is squashing
system.cpu.decode.UnblockCycles                 93772                       # Number of cycles decode is unblocking
system.cpu.dtb.rdAccesses                      648696                       # TLB accesses on read requests
system.cpu.dtb.rdMisses                          2117                       # TLB misses on read requests
system.cpu.dtb.wrAccesses                      248992                       # TLB accesses on write requests
system.cpu.dtb.wrMisses                           218                       # TLB misses on write requests
system.cpu.fetch.Branches                      592289                       # Number of branches that fetch encountered
system.cpu.fetch.CacheLines                    324080                       # Number of cache lines fetched
system.cpu.fetch.Cycles                       2588990                       # Number of cycles fetch has run and was not squashing or blocked
system.cpu.fetch.IcacheSquashes                  6452                       # Number of outstanding Icache misses that were squashed
system.cpu.fetch.Insts                        3168029                       # Number of instructions fetch has processed
system.cpu.fetch.MiscStallCycles                  132                       # Number of cycles fetch has spent waiting on interrupts, or bad addresses, or out of MSHRs
system.cpu.fetch.PendingQuiesceStallCycles            8                       # Number of stall cycles due to pending quiesce instructions
system.cpu.fetch.PendingTrapStallCycles           710                       # Number of stall cycles due to pending traps
system.cpu.fetch.SquashCycles                   52262                       # Number of cycles fetch has spent squashing
system.cpu.fetch.branchRate                  0.184401                       # Number of branch fetches per cycle
system.cpu.fetch.icacheStallCycles             423176                       # Number of cycles fetch is stalled on an Icache miss
system.cpu.fetch.predictedBranches             316362                       # Number of branches that fetch has predicted taken
system.cpu.fetch.rate                        0.986322                       # Number of inst fetches per cycle
system.cpu.fetch.rateDist::samples            3039147                       # Number of instructions fetched each cycle (Total)
system.cpu.fetch.rateDist::mean              1.880157                       # Number of instructions fetched each cycle (Total)
system.cpu.fetch.rateDist::stdev             1.920727                       # Number of instructions fetched each cycle (Total)
system.cpu.fetch.rateDist::underflows               0      0.00%      0.00% # Number of instructions fetched each cycle (Total)
system.cpu.fetch.rateDist::0                  1477165     48.60%     48.60% # Number of instructions fetched each cycle (Total)
system.cpu.fetch.rateDist::1                    92990      3.06%     51.66% # Number of instructions fetched each cycle (Total)
system.cpu.fetch.rateDist::2                    71338      2.35%     54.01% # Number of instructions fetched each cycle (Total)
system.cpu.fetch.rateDist::3                   112207      3.69%     57.70% # Number of instructions fetched each cycle (Total)
system.cpu.fetch.rateDist::4                  1285447     42.30%    100.00% # Number of instructions fetched each cycle (Total)
system.cpu.fetch.rateDist::overflows                0      0.00%    100.00% # Number of instructions fetched each cycle (Total)
system.cpu.fetch.rateDist::min_value                0                       # Number of instructions fetched each cycle (Total)
system.cpu.fetch.rateDist::max_value                4                       # Number of instructions fetched each cycle (Total)
system.cpu.fetch.rateDist::total              3039147                       # Number of instructions fetched each cycle (Total)
system.cpu.fp_regfile_reads                    194009                       # number of floating regfile reads
system.cpu.fp_regfile_writes                   103056                       # number of floating regfile writes
system.cpu.fuPool.fu_ticks_busy::IntALU(0)    255462800                       # Total ticks fu was busy
system.cpu.fuPool.fu_ticks_busy::IntALU(1)    255462800                       # Total ticks fu was busy
system.cpu.fuPool.fu_ticks_busy::IntALU(2)    255462800                       # Total ticks fu was busy
system.cpu.fuPool.fu_ticks_busy::IntALU(3)    255462800                       # Total ticks fu was busy
system.cpu.fuPool.fu_ticks_busy::IntALU(4)    255462400                       # Total ticks fu was busy
system.cpu.fuPool.fu_ticks_busy::IntALU(5)    255462400                       # Total ticks fu was busy
system.cpu.fuPool.fu_ticks_busy::IntMultDiv(0)      7932000                       # Total ticks fu was busy
system.cpu.fuPool.fu_ticks_busy::IntMultDiv(1)      7931200                       # Total ticks fu was busy
system.cpu.fuPool.fu_ticks_busy::FP_ALU(0)       561600                       # Total ticks fu was busy
system.cpu.fuPool.fu_ticks_busy::FP_ALU(1)       561600                       # Total ticks fu was busy
system.cpu.fuPool.fu_ticks_busy::FP_ALU(2)       560800                       # Total ticks fu was busy
system.cpu.fuPool.fu_ticks_busy::FP_ALU(3)       560800                       # Total ticks fu was busy
system.cpu.fuPool.fu_ticks_busy::FP_MultDiv(0)            0                       # Total ticks fu was busy
system.cpu.fuPool.fu_ticks_busy::FP_MultDiv(1)            0                       # Total ticks fu was busy
system.cpu.fuPool.fu_ticks_busy::SIMD_Unit(0)      8295200                       # Total ticks fu was busy
system.cpu.fuPool.fu_ticks_busy::SIMD_Unit(1)      8138800                       # Total ticks fu was busy
system.cpu.fuPool.fu_ticks_busy::SIMD_Unit(2)      8094000                       # Total ticks fu was busy
system.cpu.fuPool.fu_ticks_busy::SIMD_Unit(3)      8246800                       # Total ticks fu was busy
system.cpu.fuPool.fu_ticks_busy::PredALU(0)            0                       # Total ticks fu was busy
system.cpu.fuPool.fu_ticks_busy::RdWrPort(0)     91164800                       # Total ticks fu was busy
system.cpu.fuPool.fu_ticks_busy::RdWrPort(1)     91200000                       # Total ticks fu was busy
system.cpu.fuPool.fu_ticks_busy::RdWrPort(2)     91153600                       # Total ticks fu was busy
system.cpu.fuPool.fu_ticks_busy::RdWrPort(3)     91238000                       # Total ticks fu was busy
system.cpu.fuPool.fu_ticks_busy::IprPort(0)            0                       # Total ticks fu was busy
system.cpu.fuPool.fu_ticks_busy::total     1948415200                       # Total ticks fu was busy
system.cpu.icache.prefetcher.num_hwpf_issued            0                       # number of hwpf issued
system.cpu.icache.prefetcher.pfBufferHit            0                       # number of redundant prefetches already in prefetch queue
system.cpu.icache.prefetcher.pfIdentified            0                       # number of prefetch candidates identified
system.cpu.icache.prefetcher.pfInCache              0                       # number of redundant prefetches already in cache/mshr dropped
system.cpu.icache.prefetcher.pfRemovedFull            0                       # number of prefetches dropped due to prefetch queue size
system.cpu.icache.prefetcher.pfSpanPage             0                       # number of prefetches that crossed the page
system.cpu.idleCycles                          172814                       # Total number of cycles that the CPU has spent unscheduled due to idling
system.cpu.iew.branchMispredicts                30717                       # Number of branch mispredicts detected at execute
system.cpu.iew.exec_branches                   477438                       # Number of branches executed
system.cpu.iew.exec_nop                             0                       # number of nop insts executed
system.cpu.iew.exec_rate                     1.514620                       # Inst execution rate
system.cpu.iew.exec_refs                       898486                       # number of memory reference insts executed
system.cpu.iew.exec_stores                     248983                       # Number of stores executed
system.cpu.iew.exec_swp                             0                       # number of swp insts executed
system.cpu.iew.iewBlockCycles                  714394                       # Number of cycles IEW is blocking
system.cpu.iew.iewDispLoadInsts                678308                       # Number of dispatched load instructions
system.cpu.iew.iewDispNonSpecInsts                944                       # Number of dispatched non-speculative instructions
system.cpu.iew.iewDispSquashedInsts               575                       # Number of squashed instructions skipped by dispatch
system.cpu.iew.iewDispStoreInsts               261752                       # Number of dispatched store instructions
system.cpu.iew.iewDispatchedInsts             5217625                       # Number of instructions dispatched to IQ
system.cpu.iew.iewExecLoadInsts                649503                       # Number of load instructions executed
system.cpu.iew.iewExecSquashedInsts             37969                       # Number of squashed instructions skipped in execute
system.cpu.iew.iewExecutedInsts               4864901                       # Number of executed instructions
system.cpu.iew.iewIQFullEvents                   3472                       # Number of times the IQ has become full, causing a stall
system.cpu.iew.iewIdleCycles                        0                       # Number of cycles IEW is idle
system.cpu.iew.iewLSQFullEvents                  7852                       # Number of times the LSQ has become full, causing a stall
system.cpu.iew.iewSquashCycles                  26131                       # Number of cycles IEW is squashing
system.cpu.iew.iewUnblockCycles                 14311                       # Number of cycles IEW is unblocking
system.cpu.iew.lsq.thread0.blockedLoads             0                       # Number of blocked loads due to partial load-store forwarding
system.cpu.iew.lsq.thread0.cacheBlocked           720                       # Number of times an access to memory failed due to the cache being blocked
system.cpu.iew.lsq.thread0.forwLoads            64965                       # Number of loads that had data forwarded from stores
system.cpu.iew.lsq.thread0.ignoredResponses          253                       # Number of memory responses ignored because the instruction is squashed
system.cpu.iew.lsq.thread0.invAddrLoads             0                       # Number of loads ignored due to an invalid address
system.cpu.iew.lsq.thread0.invAddrSwpfs             0                       # Number of software prefetches ignored due to an invalid address
system.cpu.iew.lsq.thread0.memOrderViolation           76                       # Number of memory ordering violations
system.cpu.iew.lsq.thread0.rescheduledLoads            0                       # Number of loads that were rescheduled
system.cpu.iew.lsq.thread0.squashedLoads       111735                       # Number of loads squashed
system.cpu.iew.lsq.thread0.squashedStores        30995                       # Number of stores squashed
system.cpu.iew.memOrderViolationEvents             76                       # Number of memory order violations
system.cpu.iew.predictedNotTakenIncorrect        22730                       # Number of branches that were predicted not taken incorrectly
system.cpu.iew.predictedTakenIncorrect           7987                       # Number of branches that were predicted taken incorrectly
system.cpu.iew.wb_consumers                   6575931                       # num instructions consuming a value
system.cpu.iew.wb_count                       4843216                       # cumulative count of insts written-back
system.cpu.iew.wb_fanout                     0.570368                       # average fanout of values written-back
system.cpu.iew.wb_producers                   3750703                       # num instructions producing a value
system.cpu.iew.wb_rate                       1.507869                       # insts written-back per cycle
system.cpu.iew.wb_sent                        4849746                       # cumulative count of insts sent to commit
system.cpu.int_regfile_reads                  7443231                       # number of integer regfile reads
system.cpu.int_regfile_writes                 4081467                       # number of integer regfile writes
system.cpu.ipc                               0.748250                       # IPC: Instructions Per Cycle
system.cpu.ipc_total                         0.748250                       # IPC: Total IPC of All Threads
system.cpu.iq.FU_type_0::No_OpClass             31832      0.65%      0.65% # Type of FU issued
system.cpu.iq.FU_type_0::IntAlu               3831941     78.16%     78.81% # Type of FU issued
system.cpu.iq.FU_type_0::IntMult                   49      0.00%     78.81% # Type of FU issued
system.cpu.iq.FU_type_0::IntDiv                 39609      0.81%     79.62% # Type of FU issued
system.cpu.iq.FU_type_0::FloatAdd                4322      0.09%     79.70% # Type of FU issued
system.cpu.iq.FU_type_0::FloatCmp                   0      0.00%     79.70% # Type of FU issued
system.cpu.iq.FU_type_0::FloatCvt                1290      0.03%     79.73% # Type of FU issued
system.cpu.iq.FU_type_0::FloatMult                  0      0.00%     79.73% # Type of FU issued
system.cpu.iq.FU_type_0::FloatMultAcc               0      0.00%     79.73% # Type of FU issued
system.cpu.iq.FU_type_0::FloatDiv                   0      0.00%     79.73% # Type of FU issued
system.cpu.iq.FU_type_0::FloatMisc                  0      0.00%     79.73% # Type of FU issued
system.cpu.iq.FU_type_0::FloatSqrt                  0      0.00%     79.73% # Type of FU issued
system.cpu.iq.FU_type_0::SimdAdd                 6906      0.14%     79.87% # Type of FU issued
system.cpu.iq.FU_type_0::SimdAddAcc                 0      0.00%     79.87% # Type of FU issued
system.cpu.iq.FU_type_0::SimdAlu                39071      0.80%     80.67% # Type of FU issued
system.cpu.iq.FU_type_0::SimdCmp                   48      0.00%     80.67% # Type of FU issued
system.cpu.iq.FU_type_0::SimdCvt                20314      0.41%     81.08% # Type of FU issued
system.cpu.iq.FU_type_0::SimdMisc               13467      0.27%     81.36% # Type of FU issued
system.cpu.iq.FU_type_0::SimdMult                   0      0.00%     81.36% # Type of FU issued
system.cpu.iq.FU_type_0::SimdMultAcc                0      0.00%     81.36% # Type of FU issued
system.cpu.iq.FU_type_0::SimdShift               2131      0.04%     81.40% # Type of FU issued
system.cpu.iq.FU_type_0::SimdShiftAcc               0      0.00%     81.40% # Type of FU issued
system.cpu.iq.FU_type_0::SimdDiv                    0      0.00%     81.40% # Type of FU issued
system.cpu.iq.FU_type_0::SimdSqrt                   0      0.00%     81.40% # Type of FU issued
system.cpu.iq.FU_type_0::SimdFloatAdd               0      0.00%     81.40% # Type of FU issued
system.cpu.iq.FU_type_0::SimdFloatAlu               0      0.00%     81.40% # Type of FU issued
system.cpu.iq.FU_type_0::SimdFloatCmp               0      0.00%     81.40% # Type of FU issued
system.cpu.iq.FU_type_0::SimdFloatCvt               0      0.00%     81.40% # Type of FU issued
system.cpu.iq.FU_type_0::SimdFloatDiv               0      0.00%     81.40% # Type of FU issued
system.cpu.iq.FU_type_0::SimdFloatMisc              0      0.00%     81.40% # Type of FU issued
system.cpu.iq.FU_type_0::SimdFloatMult              0      0.00%     81.40% # Type of FU issued
system.cpu.iq.FU_type_0::SimdFloatMultAcc            0      0.00%     81.40% # Type of FU issued
system.cpu.iq.FU_type_0::SimdFloatSqrt              0      0.00%     81.40% # Type of FU issued
system.cpu.iq.FU_type_0::SimdReduceAdd              0      0.00%     81.40% # Type of FU issued
system.cpu.iq.FU_type_0::SimdReduceAlu              0      0.00%     81.40% # Type of FU issued
system.cpu.iq.FU_type_0::SimdReduceCmp              0      0.00%     81.40% # Type of FU issued
system.cpu.iq.FU_type_0::SimdFloatReduceAdd            0      0.00%     81.40% # Type of FU issued
system.cpu.iq.FU_type_0::SimdFloatReduceCmp            0      0.00%     81.40% # Type of FU issued
system.cpu.iq.FU_type_0::SimdAes                    0      0.00%     81.40% # Type of FU issued
system.cpu.iq.FU_type_0::SimdAesMix                 0      0.00%     81.40% # Type of FU issued
system.cpu.iq.FU_type_0::SimdSha1Hash               0      0.00%     81.40% # Type of FU issued
system.cpu.iq.FU_type_0::SimdSha1Hash2              0      0.00%     81.40% # Type of FU issued
system.cpu.iq.FU_type_0::SimdSha256Hash             0      0.00%     81.40% # Type of FU issued
system.cpu.iq.FU_type_0::SimdSha256Hash2            0      0.00%     81.40% # Type of FU issued
system.cpu.iq.FU_type_0::SimdShaSigma2              0      0.00%     81.40% # Type of FU issued
system.cpu.iq.FU_type_0::SimdShaSigma3              0      0.00%     81.40% # Type of FU issued
system.cpu.iq.FU_type_0::SimdPredAlu                0      0.00%     81.40% # Type of FU issued
system.cpu.iq.FU_type_0::MemRead               627348     12.80%     94.20% # Type of FU issued
system.cpu.iq.FU_type_0::MemWrite              239192      4.88%     99.07% # Type of FU issued
system.cpu.iq.FU_type_0::FloatMemRead           32005      0.65%     99.73% # Type of FU issued
system.cpu.iq.FU_type_0::FloatMemWrite          13348      0.27%    100.00% # Type of FU issued
system.cpu.iq.FU_type_0::IprAccess                  0      0.00%    100.00% # Type of FU issued
system.cpu.iq.FU_type_0::InstPrefetch               0      0.00%    100.00% # Type of FU issued
system.cpu.iq.FU_type_0::total                4902873                       # Type of FU issued
system.cpu.iq.fp_alu_accesses                  133890                       # Number of floating point alu accesses
system.cpu.iq.fp_inst_queue_reads              269030                       # Number of floating instruction queue reads
system.cpu.iq.fp_inst_queue_wakeup_accesses       130172                       # Number of floating instruction queue wakeup accesses
system.cpu.iq.fp_inst_queue_writes             175975                       # Number of floating instruction queue writes
system.cpu.iq.fu_busy_cnt                           0                       # FU busy when requested
system.cpu.iq.fu_busy_rate                          0                       # FU busy rate (busy events/executed inst)
system.cpu.iq.fu_full::No_OpClass                   0                       # attempts to use FU when none available
system.cpu.iq.fu_full::IntAlu                       0                       # attempts to use FU when none available
system.cpu.iq.fu_full::IntMult                      0                       # attempts to use FU when none available
system.cpu.iq.fu_full::IntDiv                       0                       # attempts to use FU when none available
system.cpu.iq.fu_full::FloatAdd                     0                       # attempts to use FU when none available
system.cpu.iq.fu_full::FloatCmp                     0                       # attempts to use FU when none available
system.cpu.iq.fu_full::FloatCvt                     0                       # attempts to use FU when none available
system.cpu.iq.fu_full::FloatMult                    0                       # attempts to use FU when none available
system.cpu.iq.fu_full::FloatMultAcc                 0                       # attempts to use FU when none available
system.cpu.iq.fu_full::FloatDiv                     0                       # attempts to use FU when none available
system.cpu.iq.fu_full::FloatMisc                    0                       # attempts to use FU when none available
system.cpu.iq.fu_full::FloatSqrt                    0                       # attempts to use FU when none available
system.cpu.iq.fu_full::SimdAdd                      0                       # attempts to use FU when none available
system.cpu.iq.fu_full::SimdAddAcc                   0                       # attempts to use FU when none available
system.cpu.iq.fu_full::SimdAlu                      0                       # attempts to use FU when none available
system.cpu.iq.fu_full::SimdCmp                      0                       # attempts to use FU when none available
system.cpu.iq.fu_full::SimdCvt                      0                       # attempts to use FU when none available
system.cpu.iq.fu_full::SimdMisc                     0                       # attempts to use FU when none available
system.cpu.iq.fu_full::SimdMult                     0                       # attempts to use FU when none available
system.cpu.iq.fu_full::SimdMultAcc                  0                       # attempts to use FU when none available
system.cpu.iq.fu_full::SimdShift                    0                       # attempts to use FU when none available
system.cpu.iq.fu_full::SimdShiftAcc                 0                       # attempts to use FU when none available
system.cpu.iq.fu_full::SimdDiv                      0                       # attempts to use FU when none available
system.cpu.iq.fu_full::SimdSqrt                     0                       # attempts to use FU when none available
system.cpu.iq.fu_full::SimdFloatAdd                 0                       # attempts to use FU when none available
system.cpu.iq.fu_full::SimdFloatAlu                 0                       # attempts to use FU when none available
system.cpu.iq.fu_full::SimdFloatCmp                 0                       # attempts to use FU when none available
system.cpu.iq.fu_full::SimdFloatCvt                 0                       # attempts to use FU when none available
system.cpu.iq.fu_full::SimdFloatDiv                 0                       # attempts to use FU when none available
system.cpu.iq.fu_full::SimdFloatMisc                0                       # attempts to use FU when none available
system.cpu.iq.fu_full::SimdFloatMult                0                       # attempts to use FU when none available
system.cpu.iq.fu_full::SimdFloatMultAcc             0                       # attempts to use FU when none available
system.cpu.iq.fu_full::SimdFloatSqrt                0                       # attempts to use FU when none available
system.cpu.iq.fu_full::SimdReduceAdd                0                       # attempts to use FU when none available
system.cpu.iq.fu_full::SimdReduceAlu                0                       # attempts to use FU when none available
system.cpu.iq.fu_full::SimdReduceCmp                0                       # attempts to use FU when none available
system.cpu.iq.fu_full::SimdFloatReduceAdd            0                       # attempts to use FU when none available
system.cpu.iq.fu_full::SimdFloatReduceCmp            0                       # attempts to use FU when none available
system.cpu.iq.fu_full::SimdAes                      0                       # attempts to use FU when none available
system.cpu.iq.fu_full::SimdAesMix                   0                       # attempts to use FU when none available
system.cpu.iq.fu_full::SimdSha1Hash                 0                       # attempts to use FU when none available
system.cpu.iq.fu_full::SimdSha1Hash2                0                       # attempts to use FU when none available
system.cpu.iq.fu_full::SimdSha256Hash               0                       # attempts to use FU when none available
system.cpu.iq.fu_full::SimdSha256Hash2              0                       # attempts to use FU when none available
system.cpu.iq.fu_full::SimdShaSigma2                0                       # attempts to use FU when none available
system.cpu.iq.fu_full::SimdShaSigma3                0                       # attempts to use FU when none available
system.cpu.iq.fu_full::SimdPredAlu                  0                       # attempts to use FU when none available
system.cpu.iq.fu_full::MemRead                      0                       # attempts to use FU when none available
system.cpu.iq.fu_full::MemWrite                     0                       # attempts to use FU when none available
system.cpu.iq.fu_full::FloatMemRead                 0                       # attempts to use FU when none available
system.cpu.iq.fu_full::FloatMemWrite                0                       # attempts to use FU when none available
system.cpu.iq.fu_full::IprAccess                    0                       # attempts to use FU when none available
system.cpu.iq.fu_full::InstPrefetch                 0                       # attempts to use FU when none available
system.cpu.iq.int_alu_accesses                4737151                       # Number of integer alu accesses
system.cpu.iq.int_inst_queue_reads           12596161                       # Number of integer instruction queue reads
system.cpu.iq.int_inst_queue_wakeup_accesses      4713044                       # Number of integer instruction queue wakeup accesses
system.cpu.iq.int_inst_queue_writes           5924102                       # Number of integer instruction queue writes
system.cpu.iq.iqInstsAdded                    5216511                       # Number of instructions added to the IQ (excludes non-spec)
system.cpu.iq.iqInstsIssued                   4902873                       # Number of instructions issued
system.cpu.iq.iqNonSpecInstsAdded                1114                       # Number of non-speculative instructions added to the IQ
system.cpu.iq.iqSquashedInstsExamined          882379                       # Number of squashed instructions iterated over during squash; mainly for profiling
system.cpu.iq.iqSquashedInstsIssued             20301                       # Number of squashed instructions issued
system.cpu.iq.iqSquashedNonSpecRemoved            353                       # Number of squashed non-spec instructions that were removed
system.cpu.iq.iqSquashedOperandsExamined      1282185                       # Number of squashed operands that are examined and possibly removed from graph
system.cpu.iq.issued_per_cycle::samples       3039147                       # Number of insts issued each cycle
system.cpu.iq.issued_per_cycle::mean         1.613240                       # Number of insts issued each cycle
system.cpu.iq.issued_per_cycle::stdev        1.659923                       # Number of insts issued each cycle
system.cpu.iq.issued_per_cycle::underflows            0      0.00%      0.00% # Number of insts issued each cycle
system.cpu.iq.issued_per_cycle::0             1364025     44.88%     44.88% # Number of insts issued each cycle
system.cpu.iq.issued_per_cycle::1              222729      7.33%     52.21% # Number of insts issued each cycle
system.cpu.iq.issued_per_cycle::2              364190     11.98%     64.19% # Number of insts issued each cycle
system.cpu.iq.issued_per_cycle::3              401048     13.20%     77.39% # Number of insts issued each cycle
system.cpu.iq.issued_per_cycle::4              687155     22.61%    100.00% # Number of insts issued each cycle
system.cpu.iq.issued_per_cycle::overflows            0      0.00%    100.00% # Number of insts issued each cycle
system.cpu.iq.issued_per_cycle::min_value            0                       # Number of insts issued each cycle
system.cpu.iq.issued_per_cycle::max_value            4                       # Number of insts issued each cycle
system.cpu.iq.issued_per_cycle::total         3039147                       # Number of insts issued each cycle
system.cpu.iq.rate                           1.526442                       # Inst issue rate
system.cpu.iq.vec_alu_accesses                      0                       # Number of vector alu accesses
system.cpu.iq.vec_inst_queue_reads                  0                       # Number of vector instruction queue reads
system.cpu.iq.vec_inst_queue_wakeup_accesses            0                       # Number of vector instruction queue wakeup accesses
system.cpu.iq.vec_inst_queue_writes                 0                       # Number of vector instruction queue writes
system.cpu.itb.rdAccesses                           0                       # TLB accesses on read requests
system.cpu.itb.rdMisses                             0                       # TLB misses on read requests
system.cpu.itb.wrAccesses                      324204                       # TLB accesses on write requests
system.cpu.itb.wrMisses                           391                       # TLB misses on write requests
system.cpu.memDep0.conflictingLoads             11533                       # Number of conflicting loads.
system.cpu.memDep0.conflictingStores             3633                       # Number of conflicting stores.
system.cpu.memDep0.insertedLoads               678308                       # Number of loads inserted to the mem dependence unit.
system.cpu.memDep0.insertedStores              261752                       # Number of stores inserted to the mem dependence unit.
system.cpu.misc_regfile_reads                 1871025                       # number of misc regfile reads
system.cpu.misc_regfile_writes                    702                       # number of misc regfile writes
system.cpu.numCycles                          3211961                       # number of cpu cycles simulated
system.cpu.numWorkItemsCompleted                    0                       # number of work items this cpu completed
system.cpu.numWorkItemsStarted                      0                       # number of work items this cpu started
system.cpu.process.numSyscalls                     58                       # Number of system calls
system.cpu.rename.BlockCycles                  865227                       # Number of cycles rename is blocking
system.cpu.rename.CommittedMaps               5648267                       # Number of HB maps that are committed
system.cpu.rename.FullRegisterEvents               38                       # Number of times there has been no free registers
system.cpu.rename.IQFullEvents                  46630                       # Number of times rename has blocked due to IQ full
system.cpu.rename.IdleCycles                   433707                       # Number of cycles rename is idle
system.cpu.rename.LQFullEvents                  17520                       # Number of times rename has blocked due to LQ full
system.cpu.rename.ROBFullEvents                  6357                       # Number of times rename has blocked due to ROB full
system.cpu.rename.RenameLookups              13946145                       # Number of register rename lookups that rename has made
system.cpu.rename.RenamedInsts                5361021                       # Number of instructions processed by rename
system.cpu.rename.RenamedOperands             7015189                       # Number of destination operands rename has renamed
system.cpu.rename.RunCycles                   1378169                       # Number of cycles rename is running
system.cpu.rename.SQFullEvents                 212799                       # Number of times rename has blocked due to SQ full
system.cpu.rename.SquashCycles                  26131                       # Number of cycles rename is squashing
system.cpu.rename.UnblockCycles                316390                       # Number of cycles rename is unblocking
system.cpu.rename.UndoneMaps                  1366899                       # Number of HB maps that are undone due to squashing
system.cpu.rename.fp_rename_lookups            230172                       # Number of floating rename lookups
system.cpu.rename.int_rename_lookups          8369832                       # Number of integer rename lookups
system.cpu.rename.serializeStallCycles          19523                       # count of cycles rename stalled for serializing inst
system.cpu.rename.serializingInsts                892                       # count of serializing insts renamed
system.cpu.rename.skidInsts                    226173                       # count of insts added to the skid buffer
system.cpu.rename.tempSerializingInsts            942                       # count of temporary serializing insts renamed
system.cpu.rob.rob_reads                      7297434                       # The number of ROB reads
system.cpu.rob.rob_writes                    10677101                       # The number of ROB writes
system.cpu.timesIdled                            1695                       # Number of times that the entire CPU went into an idle state and unscheduled itself
system.l2bus.snoop_filter.hit_multi_requests           13                       # Number of requests hitting in the snoop filter with multiple (>1) holders of the requested data.
system.l2bus.snoop_filter.hit_multi_snoops            1                       # Number of snoops hitting in the snoop filter with multiple (>1) holders of the requested data.
system.l2bus.snoop_filter.hit_single_requests        25318                       # Number of requests hitting in the snoop filter with a single holder of the requested data.
system.l2bus.snoop_filter.hit_single_snoops          601                       # Number of snoops hitting in the snoop filter with a single holder of the requested data.
system.l2bus.snoop_filter.tot_requests          51914                       # Total number of requests made to the snoop filter.
system.l2bus.snoop_filter.tot_snoops              602                       # Total number of snoops made to the snoop filter.
system.l2cache.prefetcher.num_hwpf_issued         2137                       # number of hwpf issued
system.l2cache.prefetcher.pfBufferHit               0                       # number of redundant prefetches already in prefetch queue
system.l2cache.prefetcher.pfIdentified           2138                       # number of prefetch candidates identified
system.l2cache.prefetcher.pfInCache                 0                       # number of redundant prefetches already in cache/mshr dropped
system.l2cache.prefetcher.pfRemovedFull             0                       # number of prefetches dropped due to prefetch queue size
system.l2cache.prefetcher.pfSpanPage              198                       # number of prefetches that crossed the page
system.membus.snoop_filter.hit_multi_requests            0                       # Number of requests hitting in the snoop filter with multiple (>1) holders of the requested data.
system.membus.snoop_filter.hit_multi_snoops            0                       # Number of snoops hitting in the snoop filter with multiple (>1) holders of the requested data.
system.membus.snoop_filter.hit_single_requests        13823                       # Number of requests hitting in the snoop filter with a single holder of the requested data.
system.membus.snoop_filter.hit_single_snoops            0                       # Number of snoops hitting in the snoop filter with a single holder of the requested data.
system.membus.snoop_filter.tot_requests         31780                       # Total number of requests made to the snoop filter.
system.membus.snoop_filter.tot_snoops               0                       # Total number of snoops made to the snoop filter.
system.membus.pwrStateResidencyTicks::UNDEFINED   1284784000                       # Cumulative time (in ticks) in various power states
system.membus.trans_dist::ReadResp              15208                       # Transaction distribution
system.membus.trans_dist::WritebackDirty         1804                       # Transaction distribution
system.membus.trans_dist::CleanEvict            12019                       # Transaction distribution
system.membus.trans_dist::ReadExReq              2749                       # Transaction distribution
system.membus.trans_dist::ReadExResp             2749                       # Transaction distribution
system.membus.trans_dist::ReadSharedReq         15208                       # Transaction distribution
system.membus.pkt_count_system.l2cache.mem_side::system.mem_ctrl.port        49737                       # Packet count per connected master and slave (bytes)
system.membus.pkt_count_system.l2cache.mem_side::total        49737                       # Packet count per connected master and slave (bytes)
system.membus.pkt_count::total                  49737                       # Packet count per connected master and slave (bytes)
system.membus.pkt_size_system.l2cache.mem_side::system.mem_ctrl.port      1264704                       # Cumulative packet size per connected master and slave (bytes)
system.membus.pkt_size_system.l2cache.mem_side::total      1264704                       # Cumulative packet size per connected master and slave (bytes)
system.membus.pkt_size::total                 1264704                       # Cumulative packet size per connected master and slave (bytes)
system.membus.snoops                                0                       # Total snoops (count)
system.membus.snoopTraffic                          0                       # Total snoop traffic (bytes)
system.membus.snoop_fanout::samples             17957                       # Request fanout histogram
system.membus.snoop_fanout::mean                    0                       # Request fanout histogram
system.membus.snoop_fanout::stdev                   0                       # Request fanout histogram
system.membus.snoop_fanout::underflows              0      0.00%      0.00% # Request fanout histogram
system.membus.snoop_fanout::0                   17957    100.00%    100.00% # Request fanout histogram
system.membus.snoop_fanout::1                       0      0.00%    100.00% # Request fanout histogram
system.membus.snoop_fanout::overflows               0      0.00%    100.00% # Request fanout histogram
system.membus.snoop_fanout::min_value               0                       # Request fanout histogram
system.membus.snoop_fanout::max_value               0                       # Request fanout histogram
system.membus.snoop_fanout::total               17957                       # Request fanout histogram
system.membus.reqLayer2.occupancy            15712779                       # Layer occupancy (ticks)
system.membus.reqLayer2.utilization               1.2                       # Layer utilization (%)
system.membus.respLayer0.occupancy           38968121                       # Layer occupancy (ticks)
system.membus.respLayer0.utilization              3.0                       # Layer utilization (%)
system.l2bus.pwrStateResidencyTicks::UNDEFINED   1284784000                       # Cumulative time (in ticks) in various power states
system.l2bus.trans_dist::ReadResp               23037                       # Transaction distribution
system.l2bus.trans_dist::WritebackDirty          9535                       # Transaction distribution
system.l2bus.trans_dist::CleanEvict             29766                       # Transaction distribution
system.l2bus.trans_dist::HardPFReq               2935                       # Transaction distribution
system.l2bus.trans_dist::ReadExReq               3560                       # Transaction distribution
system.l2bus.trans_dist::ReadExResp              3560                       # Transaction distribution
system.l2bus.trans_dist::ReadSharedReq          23037                       # Transaction distribution
system.l2bus.pkt_count_system.cpu.icache.mem_side::system.l2cache.cpu_side        11012                       # Packet count per connected master and slave (bytes)
system.l2bus.pkt_count_system.cpu.dcache.mem_side::system.l2cache.cpu_side        67496                       # Packet count per connected master and slave (bytes)
system.l2bus.pkt_count::total                   78508                       # Packet count per connected master and slave (bytes)
system.l2bus.pkt_size_system.cpu.icache.mem_side::system.l2cache.cpu_side       240256                       # Cumulative packet size per connected master and slave (bytes)
system.l2bus.pkt_size_system.cpu.dcache.mem_side::system.l2cache.cpu_side      1956544                       # Cumulative packet size per connected master and slave (bytes)
system.l2bus.pkt_size::total                  2196800                       # Cumulative packet size per connected master and slave (bytes)
system.l2bus.snoops                             16922                       # Total snoops (count)
system.l2bus.snoopTraffic                      115648                       # Total snoop traffic (bytes)
system.l2bus.snoop_fanout::samples              43516                       # Request fanout histogram
system.l2bus.snoop_fanout::mean              0.014179                       # Request fanout histogram
system.l2bus.snoop_fanout::stdev             0.118423                       # Request fanout histogram
system.l2bus.snoop_fanout::underflows               0      0.00%      0.00% # Request fanout histogram
system.l2bus.snoop_fanout::0                    42900     98.58%     98.58% # Request fanout histogram
system.l2bus.snoop_fanout::1                      615      1.41%    100.00% # Request fanout histogram
system.l2bus.snoop_fanout::2                        1      0.00%    100.00% # Request fanout histogram
system.l2bus.snoop_fanout::overflows                0      0.00%    100.00% # Request fanout histogram
system.l2bus.snoop_fanout::min_value                0                       # Request fanout histogram
system.l2bus.snoop_fanout::max_value                2                       # Request fanout histogram
system.l2bus.snoop_fanout::total                43516                       # Request fanout histogram
system.l2bus.respLayer1.occupancy            27408798                       # Layer occupancy (ticks)
system.l2bus.respLayer1.utilization               2.1                       # Layer utilization (%)
system.l2bus.reqLayer0.occupancy             29360699                       # Layer occupancy (ticks)
system.l2bus.reqLayer0.utilization                2.3                       # Layer utilization (%)
system.l2bus.respLayer0.occupancy             4509996                       # Layer occupancy (ticks)
system.l2bus.respLayer0.utilization               0.4                       # Layer utilization (%)
system.clk_domain.clock                           400                       # Clock period in ticks
system.clk_domain.voltage_domain.voltage            1                       # Voltage in Volts
system.cpu.pwrStateResidencyTicks::ON      1284784000                       # Cumulative time (in ticks) in various power states
system.cpu.icache.pwrStateResidencyTicks::UNDEFINED   1284784000                       # Cumulative time (in ticks) in various power states
system.cpu.icache.demand_hits::.cpu.inst       318449                       # number of demand (read+write) hits
system.cpu.icache.demand_hits::total           318449                       # number of demand (read+write) hits
system.cpu.icache.overall_hits::.cpu.inst       318449                       # number of overall hits
system.cpu.icache.overall_hits::total          318449                       # number of overall hits
system.cpu.icache.demand_misses::.cpu.inst         5630                       # number of demand (read+write) misses
system.cpu.icache.demand_misses::total           5630                       # number of demand (read+write) misses
system.cpu.icache.overall_misses::.cpu.inst         5630                       # number of overall misses
system.cpu.icache.overall_misses::total          5630                       # number of overall misses
system.cpu.icache.demand_miss_latency::.cpu.inst    275408000                       # number of demand (read+write) miss cycles
system.cpu.icache.demand_miss_latency::total    275408000                       # number of demand (read+write) miss cycles
system.cpu.icache.overall_miss_latency::.cpu.inst    275408000                       # number of overall miss cycles
system.cpu.icache.overall_miss_latency::total    275408000                       # number of overall miss cycles
system.cpu.icache.demand_accesses::.cpu.inst       324079                       # number of demand (read+write) accesses
system.cpu.icache.demand_accesses::total       324079                       # number of demand (read+write) accesses
system.cpu.icache.overall_accesses::.cpu.inst       324079                       # number of overall (read+write) accesses
system.cpu.icache.overall_accesses::total       324079                       # number of overall (read+write) accesses
system.cpu.icache.demand_miss_rate::.cpu.inst     0.017372                       # miss rate for demand accesses
system.cpu.icache.demand_miss_rate::total     0.017372                       # miss rate for demand accesses
system.cpu.icache.overall_miss_rate::.cpu.inst     0.017372                       # miss rate for overall accesses
system.cpu.icache.overall_miss_rate::total     0.017372                       # miss rate for overall accesses
system.cpu.icache.demand_avg_miss_latency::.cpu.inst 48917.939609                       # average overall miss latency
system.cpu.icache.demand_avg_miss_latency::total 48917.939609                       # average overall miss latency
system.cpu.icache.overall_avg_miss_latency::.cpu.inst 48917.939609                       # average overall miss latency
system.cpu.icache.overall_avg_miss_latency::total 48917.939609                       # average overall miss latency
system.cpu.icache.blocked_cycles::no_mshrs           70                       # number of cycles access was blocked
system.cpu.icache.blocked_cycles::no_targets            0                       # number of cycles access was blocked
system.cpu.icache.blocked::no_mshrs                 4                       # number of cycles access was blocked
system.cpu.icache.blocked::no_targets               0                       # number of cycles access was blocked
system.cpu.icache.avg_blocked_cycles::no_mshrs    17.500000                       # average number of cycles each access was blocked
system.cpu.icache.avg_blocked_cycles::no_targets          nan                       # average number of cycles each access was blocked
system.cpu.icache.demand_mshr_hits::.cpu.inst         1873                       # number of demand (read+write) MSHR hits
system.cpu.icache.demand_mshr_hits::total         1873                       # number of demand (read+write) MSHR hits
system.cpu.icache.overall_mshr_hits::.cpu.inst         1873                       # number of overall MSHR hits
system.cpu.icache.overall_mshr_hits::total         1873                       # number of overall MSHR hits
system.cpu.icache.demand_mshr_misses::.cpu.inst         3757                       # number of demand (read+write) MSHR misses
system.cpu.icache.demand_mshr_misses::total         3757                       # number of demand (read+write) MSHR misses
system.cpu.icache.overall_mshr_misses::.cpu.inst         3757                       # number of overall MSHR misses
system.cpu.icache.overall_mshr_misses::total         3757                       # number of overall MSHR misses
system.cpu.icache.demand_mshr_miss_latency::.cpu.inst    208478000                       # number of demand (read+write) MSHR miss cycles
system.cpu.icache.demand_mshr_miss_latency::total    208478000                       # number of demand (read+write) MSHR miss cycles
system.cpu.icache.overall_mshr_miss_latency::.cpu.inst    208478000                       # number of overall MSHR miss cycles
system.cpu.icache.overall_mshr_miss_latency::total    208478000                       # number of overall MSHR miss cycles
system.cpu.icache.demand_mshr_miss_rate::.cpu.inst     0.011593                       # mshr miss rate for demand accesses
system.cpu.icache.demand_mshr_miss_rate::total     0.011593                       # mshr miss rate for demand accesses
system.cpu.icache.overall_mshr_miss_rate::.cpu.inst     0.011593                       # mshr miss rate for overall accesses
system.cpu.icache.overall_mshr_miss_rate::total     0.011593                       # mshr miss rate for overall accesses
system.cpu.icache.demand_avg_mshr_miss_latency::.cpu.inst 55490.550972                       # average overall mshr miss latency
system.cpu.icache.demand_avg_mshr_miss_latency::total 55490.550972                       # average overall mshr miss latency
system.cpu.icache.overall_avg_mshr_miss_latency::.cpu.inst 55490.550972                       # average overall mshr miss latency
system.cpu.icache.overall_avg_mshr_miss_latency::total 55490.550972                       # average overall mshr miss latency
system.cpu.icache.replacements                   3501                       # number of replacements
system.cpu.icache.ReadReq_hits::.cpu.inst       318449                       # number of ReadReq hits
system.cpu.icache.ReadReq_hits::total          318449                       # number of ReadReq hits
system.cpu.icache.ReadReq_misses::.cpu.inst         5630                       # number of ReadReq misses
system.cpu.icache.ReadReq_misses::total          5630                       # number of ReadReq misses
system.cpu.icache.ReadReq_miss_latency::.cpu.inst    275408000                       # number of ReadReq miss cycles
system.cpu.icache.ReadReq_miss_latency::total    275408000                       # number of ReadReq miss cycles
system.cpu.icache.ReadReq_accesses::.cpu.inst       324079                       # number of ReadReq accesses(hits+misses)
system.cpu.icache.ReadReq_accesses::total       324079                       # number of ReadReq accesses(hits+misses)
system.cpu.icache.ReadReq_miss_rate::.cpu.inst     0.017372                       # miss rate for ReadReq accesses
system.cpu.icache.ReadReq_miss_rate::total     0.017372                       # miss rate for ReadReq accesses
system.cpu.icache.ReadReq_avg_miss_latency::.cpu.inst 48917.939609                       # average ReadReq miss latency
system.cpu.icache.ReadReq_avg_miss_latency::total 48917.939609                       # average ReadReq miss latency
system.cpu.icache.ReadReq_mshr_hits::.cpu.inst         1873                       # number of ReadReq MSHR hits
system.cpu.icache.ReadReq_mshr_hits::total         1873                       # number of ReadReq MSHR hits
system.cpu.icache.ReadReq_mshr_misses::.cpu.inst         3757                       # number of ReadReq MSHR misses
system.cpu.icache.ReadReq_mshr_misses::total         3757                       # number of ReadReq MSHR misses
system.cpu.icache.ReadReq_mshr_miss_latency::.cpu.inst    208478000                       # number of ReadReq MSHR miss cycles
system.cpu.icache.ReadReq_mshr_miss_latency::total    208478000                       # number of ReadReq MSHR miss cycles
system.cpu.icache.ReadReq_mshr_miss_rate::.cpu.inst     0.011593                       # mshr miss rate for ReadReq accesses
system.cpu.icache.ReadReq_mshr_miss_rate::total     0.011593                       # mshr miss rate for ReadReq accesses
system.cpu.icache.ReadReq_avg_mshr_miss_latency::.cpu.inst 55490.550972                       # average ReadReq mshr miss latency
system.cpu.icache.ReadReq_avg_mshr_miss_latency::total 55490.550972                       # average ReadReq mshr miss latency
system.cpu.icache.prefetcher.pwrStateResidencyTicks::UNDEFINED   1284784000                       # Cumulative time (in ticks) in various power states
system.cpu.icache.tags.pwrStateResidencyTicks::UNDEFINED   1284784000                       # Cumulative time (in ticks) in various power states
system.cpu.icache.tags.tagsinuse           253.835234                       # Cycle average of tags in use
system.cpu.icache.tags.total_refs              278851                       # Total number of references to valid blocks.
system.cpu.icache.tags.sampled_refs              3501                       # Sample count of references to valid blocks.
system.cpu.icache.tags.avg_refs             79.648957                       # Average number of references to valid blocks.
system.cpu.icache.tags.warmup_cycle             66400                       # Cycle when the warmup percentage was hit.
system.cpu.icache.tags.occ_blocks::.cpu.inst   253.835234                       # Average occupied blocks per requestor
system.cpu.icache.tags.occ_percent::.cpu.inst     0.991544                       # Average percentage of cache occupancy
system.cpu.icache.tags.occ_percent::total     0.991544                       # Average percentage of cache occupancy
system.cpu.icache.tags.occ_task_id_blocks::1024          256                       # Occupied blocks per task id
system.cpu.icache.tags.age_task_id_blocks_1024::0          109                       # Occupied blocks per task id
system.cpu.icache.tags.age_task_id_blocks_1024::1           97                       # Occupied blocks per task id
system.cpu.icache.tags.age_task_id_blocks_1024::2           50                       # Occupied blocks per task id
system.cpu.icache.tags.occ_task_id_percent::1024            1                       # Percentage of cache occupancy per task id
system.cpu.icache.tags.tag_accesses            651915                       # Number of tag accesses
system.cpu.icache.tags.data_accesses           651915                       # Number of data accesses
system.cpu.dtb.walker.pwrStateResidencyTicks::UNDEFINED   1284784000                       # Cumulative time (in ticks) in various power states
system.cpu.interrupts.clk_domain.clock           6400                       # Clock period in ticks
system.cpu.itb.walker.pwrStateResidencyTicks::UNDEFINED   1284784000                       # Cumulative time (in ticks) in various power states
system.cpu.dcache.pwrStateResidencyTicks::UNDEFINED   1284784000                       # Cumulative time (in ticks) in various power states
system.cpu.dcache.demand_hits::.cpu.data       771349                       # number of demand (read+write) hits
system.cpu.dcache.demand_hits::total           771349                       # number of demand (read+write) hits
system.cpu.dcache.overall_hits::.cpu.data       771349                       # number of overall hits
system.cpu.dcache.overall_hits::total          771349                       # number of overall hits
system.cpu.dcache.demand_misses::.cpu.data        41941                       # number of demand (read+write) misses
system.cpu.dcache.demand_misses::total          41941                       # number of demand (read+write) misses
system.cpu.dcache.overall_misses::.cpu.data        41941                       # number of overall misses
system.cpu.dcache.overall_misses::total         41941                       # number of overall misses
system.cpu.dcache.demand_miss_latency::.cpu.data   1890327998                       # number of demand (read+write) miss cycles
system.cpu.dcache.demand_miss_latency::total   1890327998                       # number of demand (read+write) miss cycles
system.cpu.dcache.overall_miss_latency::.cpu.data   1890327998                       # number of overall miss cycles
system.cpu.dcache.overall_miss_latency::total   1890327998                       # number of overall miss cycles
system.cpu.dcache.demand_accesses::.cpu.data       813290                       # number of demand (read+write) accesses
system.cpu.dcache.demand_accesses::total       813290                       # number of demand (read+write) accesses
system.cpu.dcache.overall_accesses::.cpu.data       813290                       # number of overall (read+write) accesses
system.cpu.dcache.overall_accesses::total       813290                       # number of overall (read+write) accesses
system.cpu.dcache.demand_miss_rate::.cpu.data     0.051570                       # miss rate for demand accesses
system.cpu.dcache.demand_miss_rate::total     0.051570                       # miss rate for demand accesses
system.cpu.dcache.overall_miss_rate::.cpu.data     0.051570                       # miss rate for overall accesses
system.cpu.dcache.overall_miss_rate::total     0.051570                       # miss rate for overall accesses
system.cpu.dcache.demand_avg_miss_latency::.cpu.data 45071.123674                       # average overall miss latency
system.cpu.dcache.demand_avg_miss_latency::total 45071.123674                       # average overall miss latency
system.cpu.dcache.overall_avg_miss_latency::.cpu.data 45071.123674                       # average overall miss latency
system.cpu.dcache.overall_avg_miss_latency::total 45071.123674                       # average overall miss latency
system.cpu.dcache.blocked_cycles::no_mshrs        32083                       # number of cycles access was blocked
system.cpu.dcache.blocked_cycles::no_targets          258                       # number of cycles access was blocked
system.cpu.dcache.blocked::no_mshrs               873                       # number of cycles access was blocked
system.cpu.dcache.blocked::no_targets               2                       # number of cycles access was blocked
system.cpu.dcache.avg_blocked_cycles::no_mshrs    36.750286                       # average number of cycles each access was blocked
system.cpu.dcache.avg_blocked_cycles::no_targets          129                       # average number of cycles each access was blocked
system.cpu.dcache.unused_prefetches              1904                       # number of HardPF blocks evicted w/o reference
system.cpu.dcache.writebacks::.writebacks         7731                       # number of writebacks
system.cpu.dcache.writebacks::total              7731                       # number of writebacks
system.cpu.dcache.demand_mshr_hits::.cpu.data        26388                       # number of demand (read+write) MSHR hits
system.cpu.dcache.demand_mshr_hits::total        26388                       # number of demand (read+write) MSHR hits
system.cpu.dcache.overall_mshr_hits::.cpu.data        26388                       # number of overall MSHR hits
system.cpu.dcache.overall_mshr_hits::total        26388                       # number of overall MSHR hits
system.cpu.dcache.demand_mshr_misses::.cpu.data        15553                       # number of demand (read+write) MSHR misses
system.cpu.dcache.demand_mshr_misses::total        15553                       # number of demand (read+write) MSHR misses
system.cpu.dcache.overall_mshr_misses::.cpu.data        15553                       # number of overall MSHR misses
system.cpu.dcache.overall_mshr_misses::.cpu.dcache.prefetcher         7287                       # number of overall MSHR misses
system.cpu.dcache.overall_mshr_misses::total        22840                       # number of overall MSHR misses
system.cpu.dcache.demand_mshr_miss_latency::.cpu.data    718433198                       # number of demand (read+write) MSHR miss cycles
system.cpu.dcache.demand_mshr_miss_latency::total    718433198                       # number of demand (read+write) MSHR miss cycles
system.cpu.dcache.overall_mshr_miss_latency::.cpu.data    718433198                       # number of overall MSHR miss cycles
system.cpu.dcache.overall_mshr_miss_latency::.cpu.dcache.prefetcher    313105226                       # number of overall MSHR miss cycles
system.cpu.dcache.overall_mshr_miss_latency::total   1031538424                       # number of overall MSHR miss cycles
system.cpu.dcache.demand_mshr_miss_rate::.cpu.data     0.019124                       # mshr miss rate for demand accesses
system.cpu.dcache.demand_mshr_miss_rate::total     0.019124                       # mshr miss rate for demand accesses
system.cpu.dcache.overall_mshr_miss_rate::.cpu.data     0.019124                       # mshr miss rate for overall accesses
system.cpu.dcache.overall_mshr_miss_rate::.cpu.dcache.prefetcher          inf                       # mshr miss rate for overall accesses
system.cpu.dcache.overall_mshr_miss_rate::total     0.028083                       # mshr miss rate for overall accesses
system.cpu.dcache.demand_avg_mshr_miss_latency::.cpu.data 46192.580081                       # average overall mshr miss latency
system.cpu.dcache.demand_avg_mshr_miss_latency::total 46192.580081                       # average overall mshr miss latency
system.cpu.dcache.overall_avg_mshr_miss_latency::.cpu.data 46192.580081                       # average overall mshr miss latency
system.cpu.dcache.overall_avg_mshr_miss_latency::.cpu.dcache.prefetcher 42967.644573                       # average overall mshr miss latency
system.cpu.dcache.overall_avg_mshr_miss_latency::total 45163.678809                       # average overall mshr miss latency
system.cpu.dcache.replacements                  21816                       # number of replacements
system.cpu.dcache.ReadReq_hits::.cpu.data       544287                       # number of ReadReq hits
system.cpu.dcache.ReadReq_hits::total          544287                       # number of ReadReq hits
system.cpu.dcache.ReadReq_misses::.cpu.data        38241                       # number of ReadReq misses
system.cpu.dcache.ReadReq_misses::total         38241                       # number of ReadReq misses
system.cpu.dcache.ReadReq_miss_latency::.cpu.data   1679560400                       # number of ReadReq miss cycles
system.cpu.dcache.ReadReq_miss_latency::total   1679560400                       # number of ReadReq miss cycles
system.cpu.dcache.ReadReq_accesses::.cpu.data       582528                       # number of ReadReq accesses(hits+misses)
system.cpu.dcache.ReadReq_accesses::total       582528                       # number of ReadReq accesses(hits+misses)
system.cpu.dcache.ReadReq_miss_rate::.cpu.data     0.065647                       # miss rate for ReadReq accesses
system.cpu.dcache.ReadReq_miss_rate::total     0.065647                       # miss rate for ReadReq accesses
system.cpu.dcache.ReadReq_avg_miss_latency::.cpu.data 43920.410031                       # average ReadReq miss latency
system.cpu.dcache.ReadReq_avg_miss_latency::total 43920.410031                       # average ReadReq miss latency
system.cpu.dcache.ReadReq_mshr_hits::.cpu.data        26247                       # number of ReadReq MSHR hits
system.cpu.dcache.ReadReq_mshr_hits::total        26247                       # number of ReadReq MSHR hits
system.cpu.dcache.ReadReq_mshr_misses::.cpu.data        11994                       # number of ReadReq MSHR misses
system.cpu.dcache.ReadReq_mshr_misses::total        11994                       # number of ReadReq MSHR misses
system.cpu.dcache.ReadReq_mshr_miss_latency::.cpu.data    515652000                       # number of ReadReq MSHR miss cycles
system.cpu.dcache.ReadReq_mshr_miss_latency::total    515652000                       # number of ReadReq MSHR miss cycles
system.cpu.dcache.ReadReq_mshr_miss_rate::.cpu.data     0.020590                       # mshr miss rate for ReadReq accesses
system.cpu.dcache.ReadReq_mshr_miss_rate::total     0.020590                       # mshr miss rate for ReadReq accesses
system.cpu.dcache.ReadReq_avg_mshr_miss_latency::.cpu.data 42992.496248                       # average ReadReq mshr miss latency
system.cpu.dcache.ReadReq_avg_mshr_miss_latency::total 42992.496248                       # average ReadReq mshr miss latency
system.cpu.dcache.WriteReq_hits::.cpu.data       227062                       # number of WriteReq hits
system.cpu.dcache.WriteReq_hits::total         227062                       # number of WriteReq hits
system.cpu.dcache.WriteReq_misses::.cpu.data         3700                       # number of WriteReq misses
system.cpu.dcache.WriteReq_misses::total         3700                       # number of WriteReq misses
system.cpu.dcache.WriteReq_miss_latency::.cpu.data    210767598                       # number of WriteReq miss cycles
system.cpu.dcache.WriteReq_miss_latency::total    210767598                       # number of WriteReq miss cycles
system.cpu.dcache.WriteReq_accesses::.cpu.data       230762                       # number of WriteReq accesses(hits+misses)
system.cpu.dcache.WriteReq_accesses::total       230762                       # number of WriteReq accesses(hits+misses)
system.cpu.dcache.WriteReq_miss_rate::.cpu.data     0.016034                       # miss rate for WriteReq accesses
system.cpu.dcache.WriteReq_miss_rate::total     0.016034                       # miss rate for WriteReq accesses
system.cpu.dcache.WriteReq_avg_miss_latency::.cpu.data 56964.215676                       # average WriteReq miss latency
system.cpu.dcache.WriteReq_avg_miss_latency::total 56964.215676                       # average WriteReq miss latency
system.cpu.dcache.WriteReq_mshr_hits::.cpu.data          141                       # number of WriteReq MSHR hits
system.cpu.dcache.WriteReq_mshr_hits::total          141                       # number of WriteReq MSHR hits
system.cpu.dcache.WriteReq_mshr_misses::.cpu.data         3559                       # number of WriteReq MSHR misses
system.cpu.dcache.WriteReq_mshr_misses::total         3559                       # number of WriteReq MSHR misses
system.cpu.dcache.WriteReq_mshr_miss_latency::.cpu.data    202781198                       # number of WriteReq MSHR miss cycles
system.cpu.dcache.WriteReq_mshr_miss_latency::total    202781198                       # number of WriteReq MSHR miss cycles
[...]
system.l2cache.replacements                       714                       # number of replacements
system.l2cache.WritebackDirty_hits::.writebacks         1161                       # number of WritebackDirty hits
system.l2cache.WritebackDirty_hits::total         1161                       # number of WritebackDirty hits
system.l2cache.WritebackDirty_accesses::.writebacks         1161                       # number of WritebackDirty accesses(hits+misses)
system.l2cache.WritebackDirty_accesses::total         1161                       # number of WritebackDirty accesses(hits+misses)
system.l2cache.CleanEvict_mshr_misses::.writebacks           31                       # number of CleanEvict MSHR misses
system.l2cache.CleanEvict_mshr_misses::total           31                       # number of CleanEvict MSHR misses
system.l2cache.CleanEvict_mshr_miss_rate::.writebacks          inf                       # mshr miss rate for CleanEvict accesses
system.l2cache.CleanEvict_mshr_miss_rate::total          inf                       # mshr miss rate for CleanEvict accesses
system.l2cache.HardPFReq_mshr_misses::.l2cache.prefetcher          113                       # number of HardPFReq MSHR misses
system.l2cache.HardPFReq_mshr_misses::total          113                       # number of HardPFReq MSHR misses
system.l2cache.HardPFReq_mshr_miss_latency::.l2cache.prefetcher      7740637                       # number of HardPFReq MSHR miss cycles
system.l2cache.HardPFReq_mshr_miss_latency::total      7740637                       # number of HardPFReq MSHR miss cycles
system.l2cache.HardPFReq_mshr_miss_rate::.l2cache.prefetcher          inf                       # mshr miss rate for HardPFReq accesses
system.l2cache.HardPFReq_mshr_miss_rate::total          inf                       # mshr miss rate for HardPFReq accesses
system.l2cache.HardPFReq_avg_mshr_miss_latency::.l2cache.prefetcher 68501.212389                       # average HardPFReq mshr miss latency
system.l2cache.HardPFReq_avg_mshr_miss_latency::total 68501.212389                       # average HardPFReq mshr miss latency
system.l2cache.UpgradeReq_misses::.cpu.data            1                       # number of UpgradeReq misses
system.l2cache.UpgradeReq_misses::total             1                       # number of UpgradeReq misses
system.l2cache.UpgradeReq_miss_latency::.cpu.data        19600                       # number of UpgradeReq miss cycles
system.l2cache.UpgradeReq_miss_latency::total        19600                       # number of UpgradeReq miss cycles
system.l2cache.UpgradeReq_accesses::.cpu.data            1                       # number of UpgradeReq accesses(hits+misses)
system.l2cache.UpgradeReq_accesses::total            1                       # number of UpgradeReq accesses(hits+misses)
system.l2cache.UpgradeReq_miss_rate::.cpu.data            1                       # miss rate for UpgradeReq accesses
system.l2cache.UpgradeReq_miss_rate::total            1                       # miss rate for UpgradeReq accesses
system.l2cache.UpgradeReq_avg_miss_latency::.cpu.data        19600                       # average UpgradeReq miss latency
system.l2cache.UpgradeReq_avg_miss_latency::total        19600                       # average UpgradeReq miss latency
system.l2cache.UpgradeReq_mshr_misses::.cpu.data            1                       # number of UpgradeReq MSHR misses
system.l2cache.UpgradeReq_mshr_misses::total            1                       # number of UpgradeReq MSHR misses
system.l2cache.UpgradeReq_mshr_miss_latency::.cpu.data        11600                       # number of UpgradeReq MSHR miss cycles
system.l2cache.UpgradeReq_mshr_miss_latency::total        11600                       # number of UpgradeReq MSHR miss cycles
system.l2cache.UpgradeReq_mshr_miss_rate::.cpu.data            1                       # mshr miss rate for UpgradeReq accesses
system.l2cache.UpgradeReq_mshr_miss_rate::total            1                       # mshr miss rate for UpgradeReq accesses
system.l2cache.UpgradeReq_avg_mshr_miss_latency::.cpu.data        11600                       # average UpgradeReq mshr miss latency
system.l2cache.UpgradeReq_avg_mshr_miss_latency::total        11600                       # average UpgradeReq mshr miss latency
system.l2cache.ReadExReq_hits::.cpu.data           21                       # number of ReadExReq hits
system.l2cache.ReadExReq_hits::total               21                       # number of ReadExReq hits
system.l2cache.ReadExReq_misses::.cpu.data            7                       # number of ReadExReq misses
system.l2cache.ReadExReq_misses::total              7                       # number of ReadExReq misses
system.l2cache.ReadExReq_miss_latency::.cpu.data       581200                       # number of ReadExReq miss cycles
system.l2cache.ReadExReq_miss_latency::total       581200                       # number of ReadExReq miss cycles
system.l2cache.ReadExReq_accesses::.cpu.data           28                       # number of ReadExReq accesses(hits+misses)
system.l2cache.ReadExReq_accesses::total           28                       # number of ReadExReq accesses(hits+misses)
system.l2cache.ReadExReq_miss_rate::.cpu.data     0.250000                       # miss rate for ReadExReq accesses
system.l2cache.ReadExReq_miss_rate::total     0.250000                       # miss rate for ReadExReq accesses
system.l2cache.ReadExReq_avg_miss_latency::.cpu.data 83028.571429                       # average ReadExReq miss latency
system.l2cache.ReadExReq_avg_miss_latency::total 83028.571429                       # average ReadExReq miss latency
system.l2cache.ReadExReq_mshr_misses::.cpu.data            7                       # number of ReadExReq MSHR misses
system.l2cache.ReadExReq_mshr_misses::total            7                       # number of ReadExReq MSHR misses
system.l2cache.ReadExReq_mshr_miss_latency::.cpu.data       525200                       # number of ReadExReq MSHR miss cycles
system.l2cache.ReadExReq_mshr_miss_latency::total       525200                       # number of ReadExReq MSHR miss cycles
system.l2cache.ReadExReq_mshr_miss_rate::.cpu.data     0.250000                       # mshr miss rate for ReadExReq accesses
system.l2cache.ReadExReq_mshr_miss_rate::total     0.250000                       # mshr miss rate for ReadExReq accesses
system.l2cache.ReadExReq_avg_mshr_miss_latency::.cpu.data 75028.571429                       # average ReadExReq mshr miss latency
system.l2cache.ReadExReq_avg_mshr_miss_latency::total 75028.571429                       # average ReadExReq mshr miss latency
system.l2cache.ReadSharedReq_hits::.cpu.inst           95                       # number of ReadSharedReq hits
system.l2cache.ReadSharedReq_hits::.cpu.data          858                       # number of ReadSharedReq hits
system.l2cache.ReadSharedReq_hits::.cpu.dcache.prefetcher          320                       # number of ReadSharedReq hits
system.l2cache.ReadSharedReq_hits::total         1273                       # number of ReadSharedReq hits
system.l2cache.ReadSharedReq_misses::.cpu.inst          180                       # number of ReadSharedReq misses
system.l2cache.ReadSharedReq_misses::.cpu.data          434                       # number of ReadSharedReq misses
system.l2cache.ReadSharedReq_misses::.cpu.dcache.prefetcher           67                       # number of ReadSharedReq misses
system.l2cache.ReadSharedReq_misses::total          681                       # number of ReadSharedReq misses
system.l2cache.ReadSharedReq_miss_latency::.cpu.inst     12347600                       # number of ReadSharedReq miss cycles
system.l2cache.ReadSharedReq_miss_latency::.cpu.data     28438800                       # number of ReadSharedReq miss cycles
system.l2cache.ReadSharedReq_miss_latency::.cpu.dcache.prefetcher      5340301                       # number of ReadSharedReq miss cycles
system.l2cache.ReadSharedReq_miss_latency::total     46126701                       # number of ReadSharedReq miss cycles
system.l2cache.ReadSharedReq_accesses::.cpu.inst          275                       # number of ReadSharedReq accesses(hits+misses)
system.l2cache.ReadSharedReq_accesses::.cpu.data         1292                       # number of ReadSharedReq accesses(hits+misses)
system.l2cache.ReadSharedReq_accesses::.cpu.dcache.prefetcher          387                       # number of ReadSharedReq accesses(hits+misses)
system.l2cache.ReadSharedReq_accesses::total         1954                       # number of ReadSharedReq accesses(hits+misses)
system.l2cache.ReadSharedReq_miss_rate::.cpu.inst     0.654545                       # miss rate for ReadSharedReq accesses
system.l2cache.ReadSharedReq_miss_rate::.cpu.data     0.335913                       # miss rate for ReadSharedReq accesses
system.l2cache.ReadSharedReq_miss_rate::.cpu.dcache.prefetcher     0.173127                       # miss rate for ReadSharedReq accesses
system.l2cache.ReadSharedReq_miss_rate::total     0.348516                       # miss rate for ReadSharedReq accesses
system.l2cache.ReadSharedReq_avg_miss_latency::.cpu.inst 68597.777778                       # average ReadSharedReq miss latency
system.l2cache.ReadSharedReq_avg_miss_latency::.cpu.data 65527.188940                       # average ReadSharedReq miss latency
system.l2cache.ReadSharedReq_avg_miss_latency::.cpu.dcache.prefetcher 79705.985075                       # average ReadSharedReq miss latency
system.l2cache.ReadSharedReq_avg_miss_latency::total 67733.775330                       # average ReadSharedReq miss latency
system.l2cache.ReadSharedReq_mshr_hits::.cpu.data           98                       # number of ReadSharedReq MSHR hits
system.l2cache.ReadSharedReq_mshr_hits::.cpu.dcache.prefetcher            1                       # number of ReadSharedReq MSHR hits
system.l2cache.ReadSharedReq_mshr_hits::total           99                       # number of ReadSharedReq MSHR hits
system.l2cache.ReadSharedReq_mshr_misses::.cpu.inst          180                       # number of ReadSharedReq MSHR misses
system.l2cache.ReadSharedReq_mshr_misses::.cpu.data          336                       # number of ReadSharedReq MSHR misses
system.l2cache.ReadSharedReq_mshr_misses::.cpu.dcache.prefetcher           66                       # number of ReadSharedReq MSHR misses
system.l2cache.ReadSharedReq_mshr_misses::total          582                       # number of ReadSharedReq MSHR misses
system.l2cache.ReadSharedReq_mshr_miss_latency::.cpu.inst     10907600                       # number of ReadSharedReq MSHR miss cycles
system.l2cache.ReadSharedReq_mshr_miss_latency::.cpu.data     21764400                       # number of ReadSharedReq MSHR miss cycles
system.l2cache.ReadSharedReq_mshr_miss_latency::.cpu.dcache.prefetcher      4760302                       # number of ReadSharedReq MSHR miss cycles
system.l2cache.ReadSharedReq_mshr_miss_latency::total     37432302                       # number of ReadSharedReq MSHR miss cycles
system.l2cache.ReadSharedReq_mshr_miss_rate::.cpu.inst     0.654545                       # mshr miss rate for ReadSharedReq accesses
system.l2cache.ReadSharedReq_mshr_miss_rate::.cpu.data     0.260062                       # mshr miss rate for ReadSharedReq accesses
system.l2cache.ReadSharedReq_mshr_miss_rate::.cpu.dcache.prefetcher     0.170543                       # mshr miss rate for ReadSharedReq accesses
system.l2cache.ReadSharedReq_mshr_miss_rate::total     0.297851                       # mshr miss rate for ReadSharedReq accesses
system.l2cache.ReadSharedReq_avg_mshr_miss_latency::.cpu.inst 60597.777778                       # average ReadSharedReq mshr miss latency
system.l2cache.ReadSharedReq_avg_mshr_miss_latency::.cpu.data        64775                       # average ReadSharedReq mshr miss latency
system.l2cache.ReadSharedReq_avg_mshr_miss_latency::.cpu.dcache.prefetcher 72125.787879                       # average ReadSharedReq mshr miss latency
system.l2cache.ReadSharedReq_avg_mshr_miss_latency::total 64316.670103                       # average ReadSharedReq mshr miss latency
system.l2cache.prefetcher.pwrStateResidencyTicks::UNDEFINED     30409600                       # Cumulative time (in ticks) in various power states
system.l2cache.tags.pwrStateResidencyTicks::UNDEFINED     30409600                       # Cumulative time (in ticks) in various power states
system.l2cache.tags.tagsinuse                    4096                       # Cycle average of tags in use
system.l2cache.tags.total_refs                 125303                       # Total number of references to valid blocks.
system.l2cache.tags.sampled_refs                 4810                       # Sample count of references to valid blocks.
system.l2cache.tags.avg_refs                26.050520                       # Average number of references to valid blocks.
system.l2cache.tags.warmup_cycle                    0                       # Cycle when the warmup percentage was hit.
system.l2cache.tags.occ_blocks::.writebacks    51.009339                       # Average occupied blocks per requestor
system.l2cache.tags.occ_blocks::.cpu.inst   633.631302                       # Average occupied blocks per requestor
system.l2cache.tags.occ_blocks::.cpu.data  1851.011839                       # Average occupied blocks per requestor
system.l2cache.tags.occ_blocks::.cpu.dcache.prefetcher   583.364977                       # Average occupied blocks per requestor
system.l2cache.tags.occ_blocks::.l2cache.prefetcher   976.982544                       # Average occupied blocks per requestor
system.l2cache.tags.occ_percent::.writebacks     0.012453                       # Average percentage of cache occupancy
system.l2cache.tags.occ_percent::.cpu.inst     0.154695                       # Average percentage of cache occupancy
system.l2cache.tags.occ_percent::.cpu.data     0.451907                       # Average percentage of cache occupancy
system.l2cache.tags.occ_percent::.cpu.dcache.prefetcher     0.142423                       # Average percentage of cache occupancy
system.l2cache.tags.occ_percent::.l2cache.prefetcher     0.238521                       # Average percentage of cache occupancy
system.l2cache.tags.occ_percent::total              1                       # Average percentage of cache occupancy
system.l2cache.tags.occ_task_id_blocks::1022         1521                       # Occupied blocks per task id
system.l2cache.tags.occ_task_id_blocks::1024         2575                       # Occupied blocks per task id
system.l2cache.tags.age_task_id_blocks_1022::0           12                       # Occupied blocks per task id
system.l2cache.tags.age_task_id_blocks_1022::1          173                       # Occupied blocks per task id
system.l2cache.tags.age_task_id_blocks_1022::3         1336                       # Occupied blocks per task id
system.l2cache.tags.age_task_id_blocks_1024::0          201                       # Occupied blocks per task id
system.l2cache.tags.age_task_id_blocks_1024::1          329                       # Occupied blocks per task id
system.l2cache.tags.age_task_id_blocks_1024::2            1                       # Occupied blocks per task id
system.l2cache.tags.age_task_id_blocks_1024::3         2044                       # Occupied blocks per task id
system.l2cache.tags.occ_task_id_percent::1022     0.371338                       # Percentage of cache occupancy per task id
system.l2cache.tags.occ_task_id_percent::1024     0.628662                       # Percentage of cache occupancy per task id
system.l2cache.tags.tag_accesses                32426                       # Number of tag accesses
system.l2cache.tags.data_accesses               32426                       # Number of data accesses
system.mem_ctrl.pwrStateResidencyTicks::UNDEFINED     30409600                       # Cumulative time (in ticks) in various power states
system.mem_ctrl.bytes_read::.cpu.inst           11520                       # Number of bytes read from this memory
system.mem_ctrl.bytes_read::.cpu.data           21952                       # Number of bytes read from this memory
system.mem_ctrl.bytes_read::.cpu.dcache.prefetcher         4224                       # Number of bytes read from this memory
system.mem_ctrl.bytes_read::.l2cache.prefetcher         7232                       # Number of bytes read from this memory
system.mem_ctrl.bytes_read::total               44928                       # Number of bytes read from this memory
system.mem_ctrl.bytes_inst_read::.cpu.inst        11520                       # Number of instructions bytes read from this memory
system.mem_ctrl.bytes_inst_read::total          11520                       # Number of instructions bytes read from this memory
system.mem_ctrl.bytes_written::.writebacks        30080                       # Number of bytes written to this memory
system.mem_ctrl.bytes_written::total            30080                       # Number of bytes written to this memory
system.mem_ctrl.num_reads::.cpu.inst              180                       # Number of read requests responded to by this memory
system.mem_ctrl.num_reads::.cpu.data              343                       # Number of read requests responded to by this memory
system.mem_ctrl.num_reads::.cpu.dcache.prefetcher           66                       # Number of read requests responded to by this memory
system.mem_ctrl.num_reads::.l2cache.prefetcher          113                       # Number of read requests responded to by this memory
system.mem_ctrl.num_reads::total                  702                       # Number of read requests responded to by this memory
system.mem_ctrl.num_writes::.writebacks           470                       # Number of write requests responded to by this memory
system.mem_ctrl.num_writes::total                 470                       # Number of write requests responded to by this memory
system.mem_ctrl.bw_read::.cpu.inst          378827739                       # Total read bandwidth from this memory (bytes/s)
system.mem_ctrl.bw_read::.cpu.data          721877302                       # Total read bandwidth from this memory (bytes/s)
system.mem_ctrl.bw_read::.cpu.dcache.prefetcher    138903504                       # Total read bandwidth from this memory (bytes/s)
system.mem_ctrl.bw_read::.l2cache.prefetcher    237819636                       # Total read bandwidth from this memory (bytes/s)
system.mem_ctrl.bw_read::total             1477428181                       # Total read bandwidth from this memory (bytes/s)
system.mem_ctrl.bw_inst_read::.cpu.inst     378827739                       # Instruction read bandwidth from this memory (bytes/s)
system.mem_ctrl.bw_inst_read::total         378827739                       # Instruction read bandwidth from this memory (bytes/s)
system.mem_ctrl.bw_write::.writebacks       989161317                       # Write bandwidth from this memory (bytes/s)
system.mem_ctrl.bw_write::total             989161317                       # Write bandwidth from this memory (bytes/s)
system.mem_ctrl.bw_total::.writebacks       989161317                       # Total bandwidth to/from this memory (bytes/s)
system.mem_ctrl.bw_total::.cpu.inst         378827739                       # Total bandwidth to/from this memory (bytes/s)
system.mem_ctrl.bw_total::.cpu.data         721877302                       # Total bandwidth to/from this memory (bytes/s)
system.mem_ctrl.bw_total::.cpu.dcache.prefetcher    138903504                       # Total bandwidth to/from this memory (bytes/s)
system.mem_ctrl.bw_total::.l2cache.prefetcher    237819636                       # Total bandwidth to/from this memory (bytes/s)
system.mem_ctrl.bw_total::total            2466589498                       # Total bandwidth to/from this memory (bytes/s)

---------- End Simulation Statistics   ----------
