
---------- Begin Simulation Statistics ----------
final_tick                                 1077467200                       # Number of ticks from beginning of simulation (restored from checkpoints and never reset)
host_inst_rate                                 165530                       # Simulator instruction rate (inst/s)
host_mem_usage                                4402744                       # Number of bytes of host memory used
host_op_rate                                   287708                       # Simulator op (including micro ops) rate (op/s)
host_seconds                                    12.30                       # Real time elapsed on the host
host_tick_rate                               87617063                       # Simulator tick rate (ticks/s)
sim_freq                                 1000000000000                       # Frequency of simulated ticks
sim_insts                                     2035589                       # Number of instructions simulated
sim_ops                                       3538075                       # Number of ops (including micro ops) simulated
sim_seconds                                  0.001077                       # Number of seconds simulated
sim_ticks                                  1077467200                       # Number of ticks simulated
system.cpu.branchPred.BTBCorrect                    0                       # Number of correct BTB predictions (this stat may not work properly.
system.cpu.branchPred.BTBHitPct              0.000000                       # BTB Hit Percentage
system.cpu.branchPred.BTBHits                       0                       # Number of BTB hits
system.cpu.branchPred.BTBLookups               432031                       # Number of BTB lookups
system.cpu.branchPred.RASInCorrect                  7                       # Number of incorrect RAS predictions.
system.cpu.branchPred.condIncorrect             23900                       # Number of conditional branches incorrect
system.cpu.branchPred.condPredicted            459177                       # Number of conditional branches predicted
system.cpu.branchPred.indirectHits             236711                       # Number of indirect target hits.
system.cpu.branchPred.indirectLookups          432031                       # Number of indirect predictor lookups.
system.cpu.branchPred.indirectMisses           195320                       # Number of indirect misses.
system.cpu.branchPred.lookups                  484289                       # Number of BP lookups
system.cpu.branchPred.usedRAS                   10862                       # Number of times the RAS was used to get a target.
system.cpu.branchPredindirectMispredicted        11817                       # Number of mispredicted indirect branches.
system.cpu.cc_regfile_reads                   2339175                       # number of cc regfile reads
system.cpu.cc_regfile_writes                  1910370                       # number of cc regfile writes
system.cpu.commit.amos                              0                       # Number of atomic instructions committed
system.cpu.commit.branchMispredicts             23975                       # The number of times a branch was mispredicted
system.cpu.commit.branches                     340491                       # Number of branches committed
system.cpu.commit.bw_lim_events                588759                       # number cycles where commit BW limit reached
system.cpu.commit.commitNonSpecStalls             732                       # The number of times commit has been forced to stall to communicate backwards
system.cpu.commit.commitSquashedInsts          878615                       # The number of squashed insts skipped by commit
system.cpu.commit.committedInsts              2035589                       # Number of instructions committed
system.cpu.commit.committedOps                3538075                       # Number of ops (including micro ops) committed
system.cpu.commit.committed_per_cycle::samples      2306138                       # Number of insts commited each cycle
system.cpu.commit.committed_per_cycle::mean     1.534199                       # Number of insts commited each cycle
system.cpu.commit.committed_per_cycle::stdev     1.725279                       # Number of insts commited each cycle
system.cpu.commit.committed_per_cycle::underflows            0      0.00%      0.00% # Number of insts commited each cycle
system.cpu.commit.committed_per_cycle::0      1152857     49.99%     49.99% # Number of insts commited each cycle
system.cpu.commit.committed_per_cycle::1       172162      7.47%     57.46% # Number of insts commited each cycle
system.cpu.commit.committed_per_cycle::2       166203      7.21%     64.66% # Number of insts commited each cycle
system.cpu.commit.committed_per_cycle::3       226157      9.81%     74.47% # Number of insts commited each cycle
system.cpu.commit.committed_per_cycle::4       588759     25.53%    100.00% # Number of insts commited each cycle
system.cpu.commit.committed_per_cycle::overflows            0      0.00%    100.00% # Number of insts commited each cycle
system.cpu.commit.committed_per_cycle::min_value            0                       # Number of insts commited each cycle
system.cpu.commit.committed_per_cycle::max_value            4                       # Number of insts commited each cycle
system.cpu.commit.committed_per_cycle::total      2306138                       # Number of insts commited each cycle
system.cpu.commit.fp_insts                      73149                       # Number of committed floating point instructions.
system.cpu.commit.function_calls                 9079                       # Number of function calls committed.
system.cpu.commit.int_insts                   3483462                       # Number of committed integer instructions.
system.cpu.commit.loads                        485146                       # Number of loads committed
system.cpu.commit.membars                           1                       # Number of memory barriers committed
system.cpu.commit.op_class_0::No_OpClass        20374      0.58%      0.58% # Class of committed instruction
system.cpu.commit.op_class_0::IntAlu          2783660     78.68%     79.25% # Class of committed instruction
system.cpu.commit.op_class_0::IntMult            1275      0.04%     79.29% # Class of committed instruction
system.cpu.commit.op_class_0::IntDiv            38043      1.08%     80.36% # Class of committed instruction
system.cpu.commit.op_class_0::FloatAdd           2859      0.08%     80.45% # Class of committed instruction
system.cpu.commit.op_class_0::FloatCmp              0      0.00%     80.45% # Class of committed instruction
system.cpu.commit.op_class_0::FloatCvt           1200      0.03%     80.48% # Class of committed instruction
system.cpu.commit.op_class_0::FloatMult             0      0.00%     80.48% # Class of committed instruction
system.cpu.commit.op_class_0::FloatMultAcc            0      0.00%     80.48% # Class of committed instruction
system.cpu.commit.op_class_0::FloatDiv              0      0.00%     80.48% # Class of committed instruction
system.cpu.commit.op_class_0::FloatMisc             0      0.00%     80.48% # Class of committed instruction
system.cpu.commit.op_class_0::FloatSqrt             0      0.00%     80.48% # Class of committed instruction
system.cpu.commit.op_class_0::SimdAdd            6206      0.18%     80.65% # Class of committed instruction
system.cpu.commit.op_class_0::SimdAddAcc            0      0.00%     80.65% # Class of committed instruction
system.cpu.commit.op_class_0::SimdAlu           11173      0.32%     80.97% # Class of committed instruction
system.cpu.commit.op_class_0::SimdCmp               0      0.00%     80.97% # Class of committed instruction
system.cpu.commit.op_class_0::SimdCvt           12094      0.34%     81.31% # Class of committed instruction
system.cpu.commit.op_class_0::SimdMisc           6501      0.18%     81.50% # Class of committed instruction
system.cpu.commit.op_class_0::SimdMult              0      0.00%     81.50% # Class of committed instruction
system.cpu.commit.op_class_0::SimdMultAcc            0      0.00%     81.50% # Class of committed instruction
system.cpu.commit.op_class_0::SimdShift          1124      0.03%     81.53% # Class of committed instruction
system.cpu.commit.op_class_0::SimdShiftAcc            0      0.00%     81.53% # Class of committed instruction
system.cpu.commit.op_class_0::SimdDiv               0      0.00%     81.53% # Class of committed instruction
system.cpu.commit.op_class_0::SimdSqrt              0      0.00%     81.53% # Class of committed instruction
system.cpu.commit.op_class_0::SimdFloatAdd            0      0.00%     81.53% # Class of committed instruction
system.cpu.commit.op_class_0::SimdFloatAlu            0      0.00%     81.53% # Class of committed instruction
system.cpu.commit.op_class_0::SimdFloatCmp            0      0.00%     81.53% # Class of committed instruction
system.cpu.commit.op_class_0::SimdFloatCvt            0      0.00%     81.53% # Class of committed instruction
system.cpu.commit.op_class_0::SimdFloatDiv            0      0.00%     81.53% # Class of committed instruction
system.cpu.commit.op_class_0::SimdFloatMisc            0      0.00%     81.53% # Class of committed instruction
system.cpu.commit.op_class_0::SimdFloatMult            0      0.00%     81.53% # Class of committed instruction
system.cpu.commit.op_class_0::SimdFloatMultAcc            0      0.00%     81.53% # Class of committed instruction
system.cpu.commit.op_class_0::SimdFloatSqrt            0      0.00%     81.53% # Class of committed instruction
system.cpu.commit.op_class_0::SimdReduceAdd            0      0.00%     81.53% # Class of committed instruction
system.cpu.commit.op_class_0::SimdReduceAlu            0      0.00%     81.53% # Class of committed instruction
system.cpu.commit.op_class_0::SimdReduceCmp            0      0.00%     81.53% # Class of committed instruction
system.cpu.commit.op_class_0::SimdFloatReduceAdd            0      0.00%     81.53% # Class of committed instruction
system.cpu.commit.op_class_0::SimdFloatReduceCmp            0      0.00%     81.53% # Class of committed instruction
system.cpu.commit.op_class_0::SimdAes               0      0.00%     81.53% # Class of committed instruction
system.cpu.commit.op_class_0::SimdAesMix            0      0.00%     81.53% # Class of committed instruction
system.cpu.commit.op_class_0::SimdSha1Hash            0      0.00%     81.53% # Class of committed instruction
system.cpu.commit.op_class_0::SimdSha1Hash2            0      0.00%     81.53% # Class of committed instruction
system.cpu.commit.op_class_0::SimdSha256Hash            0      0.00%     81.53% # Class of committed instruction
system.cpu.commit.op_class_0::SimdSha256Hash2            0      0.00%     81.53% # Class of committed instruction
system.cpu.commit.op_class_0::SimdShaSigma2            0      0.00%     81.53% # Class of committed instruction
system.cpu.commit.op_class_0::SimdShaSigma3            0      0.00%     81.53% # Class of committed instruction
system.cpu.commit.op_class_0::SimdPredAlu            0      0.00%     81.53% # Class of committed instruction
system.cpu.commit.op_class_0::MemRead          466044     13.17%     94.70% # Class of committed instruction
system.cpu.commit.op_class_0::MemWrite         156347      4.42%     99.12% # Class of committed instruction
system.cpu.commit.op_class_0::FloatMemRead        19102      0.54%     99.66% # Class of committed instruction
system.cpu.commit.op_class_0::FloatMemWrite        12073      0.34%    100.00% # Class of committed instruction
system.cpu.commit.op_class_0::IprAccess             0      0.00%    100.00% # Class of committed instruction
system.cpu.commit.op_class_0::InstPrefetch            0      0.00%    100.00% # Class of committed instruction
system.cpu.commit.op_class_0::total           3538075                       # Class of committed instruction
system.cpu.commit.refs                         653566                       # Number of memory references committed
system.cpu.commit.swp_count                         0                       # Number of s/w prefetches committed
system.cpu.commit.vec_insts                         0                       # Number of committed Vector instructions.
system.cpu.committedInsts                     2035589                       # Number of Instructions Simulated
system.cpu.committedOps                       3538075                       # Number of Ops (including micro ops) Simulated
system.cpu.cpi                               1.323287                       # CPI: Cycles Per Instruction
system.cpu.cpi_total                         1.323287                       # CPI: Total CPI of All Threads
system.cpu.dcache.prefetcher.num_hwpf_issued         7802                       # number of hwpf issued
system.cpu.dcache.prefetcher.pfBufferHit        33943                       # number of redundant prefetches already in prefetch queue
system.cpu.dcache.prefetcher.pfIdentified        49081                       # number of prefetch candidates identified
system.cpu.dcache.prefetcher.pfInCache              0                       # number of redundant prefetches already in cache/mshr dropped
system.cpu.dcache.prefetcher.pfRemovedFull            0                       # number of prefetches dropped due to prefetch queue size
system.cpu.dcache.prefetcher.pfSpanPage          4463                       # number of prefetches that crossed the page
system.cpu.decode.BlockedCycles               1023054                       # Number of cycles decode is blocked
system.cpu.decode.DecodedInsts                4629895                       # Number of instructions handled by decode
system.cpu.decode.IdleCycles                   287342                       # Number of cycles decode is idle
system.cpu.decode.RunCycles                   1123649                       # Number of cycles decode is running
system.cpu.decode.SquashCycles                  24034                       # Number of cycles decode is squashing
system.cpu.decode.UnblockCycles                 87852                       # Number of cycles decode is unblocking
system.cpu.dtb.rdAccesses                      568259                       # TLB accesses on read requests
system.cpu.dtb.rdMisses                          2147                       # TLB misses on read requests
system.cpu.dtb.wrAccesses                      187024                       # TLB accesses on write requests
system.cpu.dtb.wrMisses                           155                       # TLB misses on write requests
system.cpu.fetch.Branches                      484289                       # Number of branches that fetch encountered
system.cpu.fetch.CacheLines                    235332                       # Number of cache lines fetched
system.cpu.fetch.Cycles                       2200236                       # Number of cycles fetch has run and was not squashing or blocked
system.cpu.fetch.IcacheSquashes                  4463                       # Number of outstanding Icache misses that were squashed
system.cpu.fetch.Insts                        2797833                       # Number of instructions fetch has processed
system.cpu.fetch.MiscStallCycles                   98                       # Number of cycles fetch has spent waiting on interrupts, or bad addresses, or out of MSHRs
system.cpu.fetch.PendingQuiesceStallCycles            6                       # Number of stall cycles due to pending quiesce instructions
system.cpu.fetch.PendingTrapStallCycles           531                       # Number of stall cycles due to pending traps
system.cpu.fetch.SquashCycles                   48068                       # Number of cycles fetch has spent squashing
system.cpu.fetch.branchRate                  0.179788                       # Number of branch fetches per cycle
system.cpu.fetch.icacheStallCycles             321026                       # Number of cycles fetch is stalled on an Icache miss
system.cpu.fetch.predictedBranches             247573                       # Number of branches that fetch has predicted taken
system.cpu.fetch.rate                        1.038670                       # Number of inst fetches per cycle
system.cpu.fetch.rateDist::samples            2545931                       # Number of instructions fetched each cycle (Total)
system.cpu.fetch.rateDist::mean              1.926471                       # Number of instructions fetched each cycle (Total)
system.cpu.fetch.rateDist::stdev             1.931249                       # Number of instructions fetched each cycle (Total)
system.cpu.fetch.rateDist::underflows               0      0.00%      0.00% # Number of instructions fetched each cycle (Total)
system.cpu.fetch.rateDist::0                  1217471     47.82%     47.82% # Number of instructions fetched each cycle (Total)
system.cpu.fetch.rateDist::1                    72866      2.86%     50.68% # Number of instructions fetched each cycle (Total)
system.cpu.fetch.rateDist::2                    57996      2.28%     52.96% # Number of instructions fetched each cycle (Total)
system.cpu.fetch.rateDist::3                    74588      2.93%     55.89% # Number of instructions fetched each cycle (Total)
system.cpu.fetch.rateDist::4                  1123010     44.11%    100.00% # Number of instructions fetched each cycle (Total)
system.cpu.fetch.rateDist::overflows                0      0.00%    100.00% # Number of instructions fetched each cycle (Total)
system.cpu.fetch.rateDist::min_value                0                       # Number of instructions fetched each cycle (Total)
system.cpu.fetch.rateDist::max_value                4                       # Number of instructions fetched each cycle (Total)
system.cpu.fetch.rateDist::total              2545931                       # Number of instructions fetched each cycle (Total)
system.cpu.fp_regfile_reads                    119117                       # number of floating regfile reads
system.cpu.fp_regfile_writes                    65530                       # number of floating regfile writes
system.cpu.fuPool.fu_ticks_busy::IntALU(0)    213996000                       # Total ticks fu was busy
system.cpu.fuPool.fu_ticks_busy::IntALU(1)    213996000                       # Total ticks fu was busy
system.cpu.fuPool.fu_ticks_busy::IntALU(2)    213996000                       # Total ticks fu was busy
system.cpu.fuPool.fu_ticks_busy::IntALU(3)    213996000                       # Total ticks fu was busy
system.cpu.fuPool.fu_ticks_busy::IntALU(4)    213995600                       # Total ticks fu was busy
system.cpu.fuPool.fu_ticks_busy::IntALU(5)    213995600                       # Total ticks fu was busy
system.cpu.fuPool.fu_ticks_busy::IntMultDiv(0)      8670400                       # Total ticks fu was busy
system.cpu.fuPool.fu_ticks_busy::IntMultDiv(1)      8670400                       # Total ticks fu was busy
system.cpu.fuPool.fu_ticks_busy::FP_ALU(0)       565600                       # Total ticks fu was busy
system.cpu.fuPool.fu_ticks_busy::FP_ALU(1)       565600                       # Total ticks fu was busy
system.cpu.fuPool.fu_ticks_busy::FP_ALU(2)       565200                       # Total ticks fu was busy
system.cpu.fuPool.fu_ticks_busy::FP_ALU(3)       565200                       # Total ticks fu was busy
system.cpu.fuPool.fu_ticks_busy::FP_MultDiv(0)            0                       # Total ticks fu was busy
system.cpu.fuPool.fu_ticks_busy::FP_MultDiv(1)            0                       # Total ticks fu was busy
system.cpu.fuPool.fu_ticks_busy::SIMD_Unit(0)      4467200                       # Total ticks fu was busy
system.cpu.fuPool.fu_ticks_busy::SIMD_Unit(1)      4484400                       # Total ticks fu was busy
system.cpu.fuPool.fu_ticks_busy::SIMD_Unit(2)      4463600                       # Total ticks fu was busy
system.cpu.fuPool.fu_ticks_busy::SIMD_Unit(3)      4444800                       # Total ticks fu was busy
system.cpu.fuPool.fu_ticks_busy::PredALU(0)            0                       # Total ticks fu was busy
system.cpu.fuPool.fu_ticks_busy::RdWrPort(0)     76988000                       # Total ticks fu was busy
system.cpu.fuPool.fu_ticks_busy::RdWrPort(1)     76955600                       # Total ticks fu was busy
system.cpu.fuPool.fu_ticks_busy::RdWrPort(2)     76962400                       # Total ticks fu was busy
system.cpu.fuPool.fu_ticks_busy::RdWrPort(3)     76960000                       # Total ticks fu was busy
system.cpu.fuPool.fu_ticks_busy::IprPort(0)            0                       # Total ticks fu was busy
system.cpu.fuPool.fu_ticks_busy::total     1629303600                       # Total ticks fu was busy
system.cpu.icache.prefetcher.num_hwpf_issued            0                       # number of hwpf issued
system.cpu.icache.prefetcher.pfBufferHit            0                       # number of redundant prefetches already in prefetch queue
system.cpu.icache.prefetcher.pfIdentified            0                       # number of prefetch candidates identified
system.cpu.icache.prefetcher.pfInCache              0                       # number of redundant prefetches already in cache/mshr dropped
system.cpu.icache.prefetcher.pfRemovedFull            0                       # number of prefetches dropped due to prefetch queue size
system.cpu.icache.prefetcher.pfSpanPage             0                       # number of prefetches that crossed the page
system.cpu.idleCycles                          147738                       # Total number of cycles that the CPU has spent unscheduled due to idling
system.cpu.iew.branchMispredicts                28247                       # Number of branch mispredicts detected at execute
system.cpu.iew.exec_branches                   370895                       # Number of branches executed
system.cpu.iew.exec_nop                             0                       # number of nop insts executed
system.cpu.iew.exec_rate                     1.509286                       # Inst execution rate
system.cpu.iew.exec_refs                       756879                       # number of memory reference insts executed
system.cpu.iew.exec_stores                     187017                       # Number of stores executed
system.cpu.iew.exec_swp                             0                       # number of swp insts executed
system.cpu.iew.iewBlockCycles                  695915                       # Number of cycles IEW is blocking
system.cpu.iew.iewDispLoadInsts                600030                       # Number of dispatched load instructions
system.cpu.iew.iewDispNonSpecInsts                949                       # Number of dispatched non-speculative instructions
system.cpu.iew.iewDispSquashedInsts               563                       # Number of squashed instructions skipped by dispatch
system.cpu.iew.iewDispStoreInsts               197019                       # Number of dispatched store instructions
system.cpu.iew.iewDispatchedInsts             4416619                       # Number of instructions dispatched to IQ
system.cpu.iew.iewExecLoadInsts                569862                       # Number of load instructions executed
system.cpu.iew.iewExecSquashedInsts             34189                       # Number of squashed instructions skipped in execute
system.cpu.iew.iewExecutedInsts               4065517                       # Number of executed instructions
system.cpu.iew.iewIQFullEvents                   3342                       # Number of times the IQ has become full, causing a stall
system.cpu.iew.iewIdleCycles                        0                       # Number of cycles IEW is idle
system.cpu.iew.iewLSQFullEvents                  9734                       # Number of times the LSQ has become full, causing a stall
system.cpu.iew.iewSquashCycles                  24034                       # Number of cycles IEW is squashing
system.cpu.iew.iewUnblockCycles                 15982                       # Number of cycles IEW is unblocking
system.cpu.iew.lsq.thread0.blockedLoads             0                       # Number of blocked loads due to partial load-store forwarding
system.cpu.iew.lsq.thread0.cacheBlocked           597                       # Number of times an access to memory failed due to the cache being blocked
system.cpu.iew.lsq.thread0.forwLoads            39532                       # Number of loads that had data forwarded from stores
system.cpu.iew.lsq.thread0.ignoredResponses          226                       # Number of memory responses ignored because the instruction is squashed
system.cpu.iew.lsq.thread0.invAddrLoads             0                       # Number of loads ignored due to an invalid address
system.cpu.iew.lsq.thread0.invAddrSwpfs             0                       # Number of software prefetches ignored due to an invalid address
system.cpu.iew.lsq.thread0.memOrderViolation           72                       # Number of memory ordering violations
system.cpu.iew.lsq.thread0.rescheduledLoads            0                       # Number of loads that were rescheduled
system.cpu.iew.lsq.thread0.squashedLoads       114882                       # Number of loads squashed
system.cpu.iew.lsq.thread0.squashedStores        28598                       # Number of stores squashed
system.cpu.iew.memOrderViolationEvents             72                       # Number of memory order violations
system.cpu.iew.predictedNotTakenIncorrect        20036                       # Number of branches that were predicted not taken incorrectly
system.cpu.iew.predictedTakenIncorrect           8211                       # Number of branches that were predicted taken incorrectly
system.cpu.iew.wb_consumers                   5711202                       # num instructions consuming a value
system.cpu.iew.wb_count                       4043771                       # cumulative count of insts written-back
system.cpu.iew.wb_fanout                     0.566143                       # average fanout of values written-back
system.cpu.iew.wb_producers                   3233359                       # num instructions producing a value
system.cpu.iew.wb_rate                       1.501213                       # insts written-back per cycle
system.cpu.iew.wb_sent                        4050758                       # cumulative count of insts sent to commit
system.cpu.int_regfile_reads                  6301549                       # number of integer regfile reads
system.cpu.int_regfile_writes                 3497479                       # number of integer regfile writes
system.cpu.ipc                               0.755694                       # IPC: Instructions Per Cycle
system.cpu.ipc_total                         0.755694                       # IPC: Total IPC of All Threads
system.cpu.iq.FU_type_0::No_OpClass             26447      0.65%      0.65% # Type of FU issued
system.cpu.iq.FU_type_0::IntAlu               3209939     78.30%     78.94% # Type of FU issued
system.cpu.iq.FU_type_0::IntMult                 1312      0.03%     78.97% # Type of FU issued
system.cpu.iq.FU_type_0::IntDiv                 42040      1.03%     80.00% # Type of FU issued
system.cpu.iq.FU_type_0::FloatAdd                4430      0.11%     80.11% # Type of FU issued
system.cpu.iq.FU_type_0::FloatCmp                   0      0.00%     80.11% # Type of FU issued
system.cpu.iq.FU_type_0::FloatCvt                1224      0.03%     80.14% # Type of FU issued
system.cpu.iq.FU_type_0::FloatMult                  0      0.00%     80.14% # Type of FU issued
system.cpu.iq.FU_type_0::FloatMultAcc               0      0.00%     80.14% # Type of FU issued
system.cpu.iq.FU_type_0::FloatDiv                   0      0.00%     80.14% # Type of FU issued
system.cpu.iq.FU_type_0::FloatMisc                  0      0.00%     80.14% # Type of FU issued
system.cpu.iq.FU_type_0::FloatSqrt                  0      0.00%     80.14% # Type of FU issued
system.cpu.iq.FU_type_0::SimdAdd                 6801      0.17%     80.30% # Type of FU issued
system.cpu.iq.FU_type_0::SimdAddAcc                 0      0.00%     80.30% # Type of FU issued
system.cpu.iq.FU_type_0::SimdAlu                14825      0.36%     80.66% # Type of FU issued
system.cpu.iq.FU_type_0::SimdCmp                    0      0.00%     80.66% # Type of FU issued
system.cpu.iq.FU_type_0::SimdCvt                13775      0.34%     81.00% # Type of FU issued
system.cpu.iq.FU_type_0::SimdMisc                7051      0.17%     81.17% # Type of FU issued
system.cpu.iq.FU_type_0::SimdMult                   0      0.00%     81.17% # Type of FU issued
system.cpu.iq.FU_type_0::SimdMultAcc                0      0.00%     81.17% # Type of FU issued
system.cpu.iq.FU_type_0::SimdShift               2198      0.05%     81.23% # Type of FU issued
system.cpu.iq.FU_type_0::SimdShiftAcc               0      0.00%     81.23% # Type of FU issued
system.cpu.iq.FU_type_0::SimdDiv                    0      0.00%     81.23% # Type of FU issued
system.cpu.iq.FU_type_0::SimdSqrt                   0      0.00%     81.23% # Type of FU issued
system.cpu.iq.FU_type_0::SimdFloatAdd               0      0.00%     81.23% # Type of FU issued
system.cpu.iq.FU_type_0::SimdFloatAlu               0      0.00%     81.23% # Type of FU issued
system.cpu.iq.FU_type_0::SimdFloatCmp               0      0.00%     81.23% # Type of FU issued
system.cpu.iq.FU_type_0::SimdFloatCvt               0      0.00%     81.23% # Type of FU issued
system.cpu.iq.FU_type_0::SimdFloatDiv               0      0.00%     81.23% # Type of FU issued
system.cpu.iq.FU_type_0::SimdFloatMisc              0      0.00%     81.23% # Type of FU issued
system.cpu.iq.FU_type_0::SimdFloatMult              0      0.00%     81.23% # Type of FU issued
system.cpu.iq.FU_type_0::SimdFloatMultAcc            0      0.00%     81.23% # Type of FU issued
system.cpu.iq.FU_type_0::SimdFloatSqrt              0      0.00%     81.23% # Type of FU issued
system.cpu.iq.FU_type_0::SimdReduceAdd              0      0.00%     81.23% # Type of FU issued
system.cpu.iq.FU_type_0::SimdReduceAlu              0      0.00%     81.23% # Type of FU issued
system.cpu.iq.FU_type_0::SimdReduceCmp              0      0.00%     81.23% # Type of FU issued
system.cpu.iq.FU_type_0::SimdFloatReduceAdd            0      0.00%     81.23% # Type of FU issued
system.cpu.iq.FU_type_0::SimdFloatReduceCmp            0      0.00%     81.23% # Type of FU issued
system.cpu.iq.FU_type_0::SimdAes                    0      0.00%     81.23% # Type of FU issued
system.cpu.iq.FU_type_0::SimdAesMix                 0      0.00%     81.23% # Type of FU issued
system.cpu.iq.FU_type_0::SimdSha1Hash               0      0.00%     81.23% # Type of FU issued
system.cpu.iq.FU_type_0::SimdSha1Hash2              0      0.00%     81.23% # Type of FU issued
system.cpu.iq.FU_type_0::SimdSha256Hash             0      0.00%     81.23% # Type of FU issued
system.cpu.iq.FU_type_0::SimdSha256Hash2            0      0.00%     81.23% # Type of FU issued
system.cpu.iq.FU_type_0::SimdShaSigma2              0      0.00%     81.23% # Type of FU issued
system.cpu.iq.FU_type_0::SimdShaSigma3              0      0.00%     81.23% # Type of FU issued
system.cpu.iq.FU_type_0::SimdPredAlu                0      0.00%     81.23% # Type of FU issued
system.cpu.iq.FU_type_0::MemRead               555294     13.54%     94.77% # Type of FU issued
system.cpu.iq.FU_type_0::MemWrite              176199      4.30%     99.07% # Type of FU issued
system.cpu.iq.FU_type_0::FloatMemRead           24825      0.61%     99.67% # Type of FU issued
system.cpu.iq.FU_type_0::FloatMemWrite          13349      0.33%    100.00% # Type of FU issued
system.cpu.iq.FU_type_0::IprAccess                  0      0.00%    100.00% # Type of FU issued
system.cpu.iq.FU_type_0::InstPrefetch               0      0.00%    100.00% # Type of FU issued
system.cpu.iq.FU_type_0::total                4099709                       # Type of FU issued
system.cpu.iq.fp_alu_accesses                   89465                       # Number of floating point alu accesses
system.cpu.iq.fp_inst_queue_reads              180253                       # Number of floating instruction queue reads
system.cpu.iq.fp_inst_queue_wakeup_accesses        86122                       # Number of floating instruction queue wakeup accesses
system.cpu.iq.fp_inst_queue_writes             130105                       # Number of floating instruction queue writes
system.cpu.iq.fu_busy_cnt                           0                       # FU busy when requested
system.cpu.iq.fu_busy_rate                          0                       # FU busy rate (busy events/executed inst)
system.cpu.iq.fu_full::No_OpClass                   0                       # attempts to use FU when none available
system.cpu.iq.fu_full::IntAlu                       0                       # attempts to use FU when none available
system.cpu.iq.fu_full::IntMult                      0                       # attempts to use FU when none available
system.cpu.iq.fu_full::IntDiv                       0                       # attempts to use FU when none available
system.cpu.iq.fu_full::FloatAdd                     0                       # attempts to use FU when none available
system.cpu.iq.fu_full::FloatCmp                     0                       # attempts to use FU when none available
system.cpu.iq.fu_full::FloatCvt                     0                       # attempts to use FU when none available
system.cpu.iq.fu_full::FloatMult                    0                       # attempts to use FU when none available
system.cpu.iq.fu_full::FloatMultAcc                 0                       # attempts to use FU when none available
system.cpu.iq.fu_full::FloatDiv                     0                       # attempts to use FU when none available
system.cpu.iq.fu_full::FloatMisc                    0                       # attempts to use FU when none available
system.cpu.iq.fu_full::FloatSqrt                    0                       # attempts to use FU when none available
system.cpu.iq.fu_full::SimdAdd                      0                       # attempts to use FU when none available
system.cpu.iq.fu_full::SimdAddAcc                   0                       # attempts to use FU when none available
system.cpu.iq.fu_full::SimdAlu                      0                       # attempts to use FU when none available
system.cpu.iq.fu_full::SimdCmp                      0                       # attempts to use FU when none available
system.cpu.iq.fu_full::SimdCvt                      0                       # attempts to use FU when none available
system.cpu.iq.fu_full::SimdMisc                     0                       # attempts to use FU when none available
system.cpu.iq.fu_full::SimdMult                     0                       # attempts to use FU when none available
system.cpu.iq.fu_full::SimdMultAcc                  0                       # attempts to use FU when none available
system.cpu.iq.fu_full::SimdShift                    0                       # attempts to use FU when none available
system.cpu.iq.fu_full::SimdShiftAcc                 0                       # attempts to use FU when none available
system.cpu.iq.fu_full::SimdDiv                      0                       # attempts to use FU when none available
system.cpu.iq.fu_full::SimdSqrt                     0                       # attempts to use FU when none available
system.cpu.iq.fu_full::SimdFloatAdd                 0                       # attempts to use FU when none available
system.cpu.iq.fu_full::SimdFloatAlu                 0                       # attempts to use FU when none available
system.cpu.iq.fu_full::SimdFloatCmp                 0                       # attempts to use FU when none available
system.cpu.iq.fu_full::SimdFloatCvt                 0                       # attempts to use FU when none available
system.cpu.iq.fu_full::SimdFloatDiv                 0                       # attempts to use FU when none available
system.cpu.iq.fu_full::SimdFloatMisc                0                       # attempts to use FU when none available
system.cpu.iq.fu_full::SimdFloatMult                0                       # attempts to use FU when none available
system.cpu.iq.fu_full::SimdFloatMultAcc             0                       # attempts to use FU when none available
system.cpu.iq.fu_full::SimdFloatSqrt                0                       # attempts to use FU when none available
system.cpu.iq.fu_full::SimdReduceAdd                0                       # attempts to use FU when none available
system.cpu.iq.fu_full::SimdReduceAlu                0                       # attempts to use FU when none available
system.cpu.iq.fu_full::SimdReduceCmp                0                       # attempts to use FU when none available
system.cpu.iq.fu_full::SimdFloatReduceAdd            0                       # attempts to use FU when none available
system.cpu.iq.fu_full::SimdFloatReduceCmp            0                       # attempts to use FU when none available
system.cpu.iq.fu_full::SimdAes                      0                       # attempts to use FU when none available
system.cpu.iq.fu_full::SimdAesMix                   0                       # attempts to use FU when none available
system.cpu.iq.fu_full::SimdSha1Hash                 0                       # attempts to use FU when none available
system.cpu.iq.fu_full::SimdSha1Hash2                0                       # attempts to use FU when none available
system.cpu.iq.fu_full::SimdSha256Hash               0                       # attempts to use FU when none available
system.cpu.iq.fu_full::SimdSha256Hash2              0                       # attempts to use FU when none available
system.cpu.iq.fu_full::SimdShaSigma2                0                       # attempts to use FU when none available
system.cpu.iq.fu_full::SimdShaSigma3                0                       # attempts to use FU when none available
system.cpu.iq.fu_full::SimdPredAlu                  0                       # attempts to use FU when none available
system.cpu.iq.fu_full::MemRead                      0                       # attempts to use FU when none available
system.cpu.iq.fu_full::MemWrite                     0                       # attempts to use FU when none available
system.cpu.iq.fu_full::FloatMemRead                 0                       # attempts to use FU when none available
system.cpu.iq.fu_full::FloatMemWrite                0                       # attempts to use FU when none available
system.cpu.iq.fu_full::IprAccess                    0                       # attempts to use FU when none available
system.cpu.iq.fu_full::InstPrefetch                 0                       # attempts to use FU when none available
system.cpu.iq.int_alu_accesses                3983797                       # Number of integer alu accesses
system.cpu.iq.int_inst_queue_reads           10582924                       # Number of integer instruction queue reads
system.cpu.iq.int_inst_queue_wakeup_accesses      3957649                       # Number of integer instruction queue wakeup accesses
system.cpu.iq.int_inst_queue_writes           5165118                       # Number of integer instruction queue writes
system.cpu.iq.iqInstsAdded                    4415444                       # Number of instructions added to the IQ (excludes non-spec)
system.cpu.iq.iqInstsIssued                   4099709                       # Number of instructions issued
system.cpu.iq.iqNonSpecInstsAdded                1175                       # Number of non-speculative instructions added to the IQ
system.cpu.iq.iqSquashedInstsExamined          878533                       # Number of squashed instructions iterated over during squash; mainly for profiling
system.cpu.iq.iqSquashedInstsIssued             17831                       # Number of squashed instructions issued
system.cpu.iq.iqSquashedNonSpecRemoved            443                       # Number of squashed non-spec instructions that were removed
system.cpu.iq.iqSquashedOperandsExamined      1310801                       # Number of squashed operands that are examined and possibly removed from graph
system.cpu.iq.issued_per_cycle::samples       2545931                       # Number of insts issued each cycle
system.cpu.iq.issued_per_cycle::mean         1.610299                       # Number of insts issued each cycle
system.cpu.iq.issued_per_cycle::stdev        1.670427                       # Number of insts issued each cycle
system.cpu.iq.issued_per_cycle::underflows            0      0.00%      0.00% # Number of insts issued each cycle
system.cpu.iq.issued_per_cycle::0             1163057     45.68%     45.68% # Number of insts issued each cycle
system.cpu.iq.issued_per_cycle::1              168617      6.62%     52.31% # Number of insts issued each cycle
system.cpu.iq.issued_per_cycle::2              295279     11.60%     63.90% # Number of insts issued each cycle
system.cpu.iq.issued_per_cycle::3              335378     13.17%     77.08% # Number of insts issued each cycle
system.cpu.iq.issued_per_cycle::4              583600     22.92%    100.00% # Number of insts issued each cycle
system.cpu.iq.issued_per_cycle::overflows            0      0.00%    100.00% # Number of insts issued each cycle
system.cpu.iq.issued_per_cycle::min_value            0                       # Number of insts issued each cycle
system.cpu.iq.issued_per_cycle::max_value            4                       # Number of insts issued each cycle
system.cpu.iq.issued_per_cycle::total         2545931                       # Number of insts issued each cycle
system.cpu.iq.rate                           1.521980                       # Inst issue rate
system.cpu.iq.vec_alu_accesses                      0                       # Number of vector alu accesses
system.cpu.iq.vec_inst_queue_reads                  0                       # Number of vector instruction queue reads
system.cpu.iq.vec_inst_queue_wakeup_accesses            0                       # Number of vector instruction queue wakeup accesses
system.cpu.iq.vec_inst_queue_writes                 0                       # Number of vector instruction queue writes
system.cpu.itb.rdAccesses                           0                       # TLB accesses on read requests
system.cpu.itb.rdMisses                             0                       # TLB misses on read requests
system.cpu.itb.wrAccesses                      235422                       # TLB accesses on write requests
system.cpu.itb.wrMisses                           329                       # TLB misses on write requests
system.cpu.memDep0.conflictingLoads             12917                       # Number of conflicting loads.
system.cpu.memDep0.conflictingStores             3715                       # Number of conflicting stores.
system.cpu.memDep0.insertedLoads               600030                       # Number of loads inserted to the mem dependence unit.
system.cpu.memDep0.insertedStores              197019                       # Number of stores inserted to the mem dependence unit.
system.cpu.misc_regfile_reads                 1532976                       # number of misc regfile reads
system.cpu.misc_regfile_writes                    675                       # number of misc regfile writes
system.cpu.numCycles                          2693669                       # number of cpu cycles simulated
system.cpu.numWorkItemsCompleted                    0                       # number of work items this cpu completed
system.cpu.numWorkItemsStarted                      0                       # number of work items this cpu started
system.cpu.process.numSyscalls                     56                       # Number of system calls
system.cpu.rename.BlockCycles                  840324                       # Number of cycles rename is blocking
system.cpu.rename.CommittedMaps               4852189                       # Number of HB maps that are committed
system.cpu.rename.FullRegisterEvents               23                       # Number of times there has been no free registers
system.cpu.rename.IQFullEvents                  45161                       # Number of times rename has blocked due to IQ full
system.cpu.rename.IdleCycles                   336823                       # Number of cycles rename is idle
system.cpu.rename.LQFullEvents                  16052                       # Number of times rename has blocked due to LQ full
system.cpu.rename.ROBFullEvents                  4568                       # Number of times rename has blocked due to ROB full
system.cpu.rename.RenameLookups              11914244                       # Number of register rename lookups that rename has made
system.cpu.rename.RenamedInsts                4555975                       # Number of instructions processed by rename
system.cpu.rename.RenamedOperands             6237611                       # Number of destination operands rename has renamed
system.cpu.rename.RunCycles                   1153748                       # Number of cycles rename is running
system.cpu.rename.SQFullEvents                  73525                       # Number of times rename has blocked due to SQ full
system.cpu.rename.SquashCycles                  24034                       # Number of cycles rename is squashing
system.cpu.rename.UnblockCycles                171722                       # Number of cycles rename is unblocking
system.cpu.rename.UndoneMaps                  1385399                       # Number of HB maps that are undone due to squashing
system.cpu.rename.fp_rename_lookups            154151                       # Number of floating rename lookups
system.cpu.rename.int_rename_lookups          7238575                       # Number of integer rename lookups
system.cpu.rename.serializeStallCycles          19280                       # count of cycles rename stalled for serializing inst
system.cpu.rename.serializingInsts                870                       # count of serializing insts renamed
system.cpu.rename.skidInsts                    203784                       # count of insts added to the skid buffer
system.cpu.rename.tempSerializingInsts            918                       # count of temporary serializing insts renamed
system.cpu.rob.rob_reads                      6134069                       # The number of ROB reads
system.cpu.rob.rob_writes                     9074103                       # The number of ROB writes
system.cpu.timesIdled                            1474                       # Number of times that the entire CPU went into an idle state and unscheduled itself
system.l2bus.snoop_filter.hit_multi_requests           11                       # Number of requests hitting in the snoop filter with multiple (>1) holders of the requested data.
system.l2bus.snoop_filter.hit_multi_snoops            0                       # Number of snoops hitting in the snoop filter with multiple (>1) holders of the requested data.
system.l2bus.snoop_filter.hit_single_requests        18138                       # Number of requests hitting in the snoop filter with a single holder of the requested data.
system.l2bus.snoop_filter.hit_single_snoops          425                       # Number of snoops hitting in the snoop filter with a single holder of the requested data.
system.l2bus.snoop_filter.tot_requests          37556                       # Total number of requests made to the snoop filter.
system.l2bus.snoop_filter.tot_snoops              425                       # Total number of snoops made to the snoop filter.
system.l2cache.prefetcher.num_hwpf_issued          680                       # number of hwpf issued
system.l2cache.prefetcher.pfBufferHit               0                       # number of redundant prefetches already in prefetch queue
system.l2cache.prefetcher.pfIdentified            680                       # number of prefetch candidates identified
system.l2cache.prefetcher.pfInCache                 0                       # number of redundant prefetches already in cache/mshr dropped
system.l2cache.prefetcher.pfRemovedFull             0                       # number of prefetches dropped due to prefetch queue size
system.l2cache.prefetcher.pfSpanPage              120                       # number of prefetches that crossed the page
system.membus.snoop_filter.hit_multi_requests            0                       # Number of requests hitting in the snoop filter with multiple (>1) holders of the requested data.
system.membus.snoop_filter.hit_multi_snoops            0                       # Number of snoops hitting in the snoop filter with multiple (>1) holders of the requested data.
system.membus.snoop_filter.hit_single_requests         9245                       # Number of requests hitting in the snoop filter with a single holder of the requested data.
system.membus.snoop_filter.hit_single_snoops            0                       # Number of snoops hitting in the snoop filter with a single holder of the requested data.
system.membus.snoop_filter.tot_requests         22609                       # Total number of requests made to the snoop filter.
system.membus.snoop_filter.tot_snoops               0                       # Total number of snoops made to the snoop filter.
system.membus.pwrStateResidencyTicks::UNDEFINED   1077467200                       # Cumulative time (in ticks) in various power states
system.membus.trans_dist::ReadResp              12029                       # Transaction distribution
system.membus.trans_dist::WritebackDirty         1336                       # Transaction distribution
system.membus.trans_dist::CleanEvict             7909                       # Transaction distribution
system.membus.trans_dist::ReadExReq              1335                       # Transaction distribution
system.membus.trans_dist::ReadExResp             1335                       # Transaction distribution
system.membus.trans_dist::ReadSharedReq         12029                       # Transaction distribution
system.membus.pkt_count_system.l2cache.mem_side::system.mem_ctrl.port        35973                       # Packet count per connected master and slave (bytes)
system.membus.pkt_count_system.l2cache.mem_side::total        35973                       # Packet count per connected master and slave (bytes)
system.membus.pkt_count::total                  35973                       # Packet count per connected master and slave (bytes)
system.membus.pkt_size_system.l2cache.mem_side::system.mem_ctrl.port       940800                       # Cumulative packet size per connected master and slave (bytes)
system.membus.pkt_size_system.l2cache.mem_side::total       940800                       # Cumulative packet size per connected master and slave (bytes)
system.membus.pkt_size::total                  940800                       # Cumulative packet size per connected master and slave (bytes)
system.membus.snoops                                0                       # Total snoops (count)
system.membus.snoopTraffic                          0                       # Total snoop traffic (bytes)
system.membus.snoop_fanout::samples             13364                       # Request fanout histogram
system.membus.snoop_fanout::mean                    0                       # Request fanout histogram
system.membus.snoop_fanout::stdev                   0                       # Request fanout histogram
system.membus.snoop_fanout::underflows              0      0.00%      0.00% # Request fanout histogram
system.membus.snoop_fanout::0                   13364    100.00%    100.00% # Request fanout histogram
system.membus.snoop_fanout::1                       0      0.00%    100.00% # Request fanout histogram
system.membus.snoop_fanout::overflows               0      0.00%    100.00% # Request fanout histogram
system.membus.snoop_fanout::min_value               0                       # Request fanout histogram
system.membus.snoop_fanout::max_value               0                       # Request fanout histogram
system.membus.snoop_fanout::total               13364                       # Request fanout histogram
system.membus.reqLayer2.occupancy            11207254                       # Layer occupancy (ticks)
system.membus.reqLayer2.utilization               1.0                       # Layer utilization (%)
system.membus.respLayer0.occupancy           28999946                       # Layer occupancy (ticks)
system.membus.respLayer0.utilization              2.7                       # Layer utilization (%)
system.l2bus.pwrStateResidencyTicks::UNDEFINED   1077467200                       # Cumulative time (in ticks) in various power states
system.l2bus.trans_dist::ReadResp               17350                       # Transaction distribution
system.l2bus.trans_dist::WritebackDirty          4097                       # Transaction distribution
system.l2bus.trans_dist::CleanEvict             23370                       # Transaction distribution
system.l2bus.trans_dist::HardPFReq                968                       # Transaction distribution
system.l2bus.trans_dist::ReadExReq               2068                       # Transaction distribution
system.l2bus.trans_dist::ReadExResp              2068                       # Transaction distribution
system.l2bus.trans_dist::ReadSharedReq          17350                       # Transaction distribution
system.l2bus.pkt_count_system.cpu.icache.mem_side::system.l2cache.cpu_side         7640                       # Packet count per connected master and slave (bytes)
system.l2bus.pkt_count_system.cpu.dcache.mem_side::system.l2cache.cpu_side        49330                       # Packet count per connected master and slave (bytes)
system.l2bus.pkt_count::total                   56970                       # Packet count per connected master and slave (bytes)
system.l2bus.pkt_size_system.cpu.icache.mem_side::system.l2cache.cpu_side       168384                       # Cumulative packet size per connected master and slave (bytes)
system.l2bus.pkt_size_system.cpu.dcache.mem_side::system.l2cache.cpu_side      1250816                       # Cumulative packet size per connected master and slave (bytes)
system.l2bus.pkt_size::total                  1419200                       # Cumulative packet size per connected master and slave (bytes)
system.l2bus.snoops                             10301                       # Total snoops (count)
system.l2bus.snoopTraffic                       85760                       # Total snoop traffic (bytes)
system.l2bus.snoop_fanout::samples              29715                       # Request fanout histogram
system.l2bus.snoop_fanout::mean              0.014673                       # Request fanout histogram
system.l2bus.snoop_fanout::stdev             0.120241                       # Request fanout histogram
system.l2bus.snoop_fanout::underflows               0      0.00%      0.00% # Request fanout histogram
system.l2bus.snoop_fanout::0                    29279     98.53%     98.53% # Request fanout histogram
system.l2bus.snoop_fanout::1                      436      1.47%    100.00% # Request fanout histogram
system.l2bus.snoop_fanout::2                        0      0.00%    100.00% # Request fanout histogram
system.l2bus.snoop_fanout::overflows                0      0.00%    100.00% # Request fanout histogram
system.l2bus.snoop_fanout::min_value                0                       # Request fanout histogram
system.l2bus.snoop_fanout::max_value                1                       # Request fanout histogram
system.l2bus.snoop_fanout::total                29715                       # Request fanout histogram
system.l2bus.respLayer1.occupancy            20142798                       # Layer occupancy (ticks)
system.l2bus.respLayer1.utilization               1.9                       # Layer utilization (%)
system.l2bus.reqLayer0.occupancy             18603718                       # Layer occupancy (ticks)
system.l2bus.reqLayer0.utilization                1.7                       # Layer utilization (%)
system.l2bus.respLayer0.occupancy             3160398                       # Layer occupancy (ticks)
system.l2bus.respLayer0.utilization               0.3                       # Layer utilization (%)
system.clk_domain.clock                           400                       # Clock period in ticks
system.clk_domain.voltage_domain.voltage            1                       # Voltage in Volts
system.cpu.pwrStateResidencyTicks::ON      1077467200                       # Cumulative time (in ticks) in various power states
system.cpu.icache.pwrStateResidencyTicks::UNDEFINED   1077467200                       # Cumulative time (in ticks) in various power states
system.cpu.icache.demand_hits::.cpu.inst       232038                       # number of demand (read+write) hits
system.cpu.icache.demand_hits::total           232038                       # number of demand (read+write) hits
system.cpu.icache.overall_hits::.cpu.inst       232038                       # number of overall hits
system.cpu.icache.overall_hits::total          232038                       # number of overall hits
system.cpu.icache.demand_misses::.cpu.inst         3293                       # number of demand (read+write) misses
system.cpu.icache.demand_misses::total           3293                       # number of demand (read+write) misses
system.cpu.icache.overall_misses::.cpu.inst         3293                       # number of overall misses
system.cpu.icache.overall_misses::total          3293                       # number of overall misses
system.cpu.icache.demand_miss_latency::.cpu.inst    162708000                       # number of demand (read+write) miss cycles
system.cpu.icache.demand_miss_latency::total    162708000                       # number of demand (read+write) miss cycles
system.cpu.icache.overall_miss_latency::.cpu.inst    162708000                       # number of overall miss cycles
system.cpu.icache.overall_miss_latency::total    162708000                       # number of overall miss cycles
system.cpu.icache.demand_accesses::.cpu.inst       235331                       # number of demand (read+write) accesses
system.cpu.icache.demand_accesses::total       235331                       # number of demand (read+write) accesses
system.cpu.icache.overall_accesses::.cpu.inst       235331                       # number of overall (read+write) accesses
system.cpu.icache.overall_accesses::total       235331                       # number of overall (read+write) accesses
system.cpu.icache.demand_miss_rate::.cpu.inst     0.013993                       # miss rate for demand accesses
system.cpu.icache.demand_miss_rate::total     0.013993                       # miss rate for demand accesses
system.cpu.icache.overall_miss_rate::.cpu.inst     0.013993                       # miss rate for overall accesses
system.cpu.icache.overall_miss_rate::total     0.013993                       # miss rate for overall accesses
system.cpu.icache.demand_avg_miss_latency::.cpu.inst 49410.264197                       # average overall miss latency
system.cpu.icache.demand_avg_miss_latency::total 49410.264197                       # average overall miss latency
system.cpu.icache.overall_avg_miss_latency::.cpu.inst 49410.264197                       # average overall miss latency
system.cpu.icache.overall_avg_miss_latency::total 49410.264197                       # average overall miss latency
system.cpu.icache.blocked_cycles::no_mshrs           40                       # number of cycles access was blocked
system.cpu.icache.blocked_cycles::no_targets            0                       # number of cycles access was blocked
system.cpu.icache.blocked::no_mshrs                 2                       # number of cycles access was blocked
system.cpu.icache.blocked::no_targets               0                       # number of cycles access was blocked
system.cpu.icache.avg_blocked_cycles::no_mshrs           20                       # average number of cycles each access was blocked
system.cpu.icache.avg_blocked_cycles::no_targets          nan                       # average number of cycles each access was blocked
system.cpu.icache.writebacks::.writebacks            1                       # number of writebacks
system.cpu.icache.writebacks::total                 1                       # number of writebacks
system.cpu.icache.demand_mshr_hits::.cpu.inst          660                       # number of demand (read+write) MSHR hits
system.cpu.icache.demand_mshr_hits::total          660                       # number of demand (read+write) MSHR hits
system.cpu.icache.overall_mshr_hits::.cpu.inst          660                       # number of overall MSHR hits
system.cpu.icache.overall_mshr_hits::total          660                       # number of overall MSHR hits
system.cpu.icache.demand_mshr_misses::.cpu.inst         2633                       # number of demand (read+write) MSHR misses
system.cpu.icache.demand_mshr_misses::total         2633                       # number of demand (read+write) MSHR misses
system.cpu.icache.overall_mshr_misses::.cpu.inst         2633                       # number of overall MSHR misses
system.cpu.icache.overall_mshr_misses::total         2633                       # number of overall MSHR misses
system.cpu.icache.demand_mshr_miss_latency::.cpu.inst    131361600                       # number of demand (read+write) MSHR miss cycles
system.cpu.icache.demand_mshr_miss_latency::total    131361600                       # number of demand (read+write) MSHR miss cycles
system.cpu.icache.overall_mshr_miss_latency::.cpu.inst    131361600                       # number of overall MSHR miss cycles
system.cpu.icache.overall_mshr_miss_latency::total    131361600                       # number of overall MSHR miss cycles
system.cpu.icache.demand_mshr_miss_rate::.cpu.inst     0.011188                       # mshr miss rate for demand accesses
system.cpu.icache.demand_mshr_miss_rate::total     0.011188                       # mshr miss rate for demand accesses
system.cpu.icache.overall_mshr_miss_rate::.cpu.inst     0.011188                       # mshr miss rate for overall accesses
system.cpu.icache.overall_mshr_miss_rate::total     0.011188                       # mshr miss rate for overall accesses
system.cpu.icache.demand_avg_mshr_miss_latency::.cpu.inst 49890.467148                       # average overall mshr miss latency
system.cpu.icache.demand_avg_mshr_miss_latency::total 49890.467148                       # average overall mshr miss latency
system.cpu.icache.overall_avg_mshr_miss_latency::.cpu.inst 49890.467148                       # average overall mshr miss latency
system.cpu.icache.overall_avg_mshr_miss_latency::total 49890.467148                       # average overall mshr miss latency
system.cpu.icache.replacements                   2377                       # number of replacements
system.cpu.icache.ReadReq_hits::.cpu.inst       232038                       # number of ReadReq hits
system.cpu.icache.ReadReq_hits::total          232038                       # number of ReadReq hits
system.cpu.icache.ReadReq_misses::.cpu.inst         3293                       # number of ReadReq misses
system.cpu.icache.ReadReq_misses::total          3293                       # number of ReadReq misses
system.cpu.icache.ReadReq_miss_latency::.cpu.inst    162708000                       # number of ReadReq miss cycles
system.cpu.icache.ReadReq_miss_latency::total    162708000                       # number of ReadReq miss cycles
system.cpu.icache.ReadReq_accesses::.cpu.inst       235331                       # number of ReadReq accesses(hits+misses)
system.cpu.icache.ReadReq_accesses::total       235331                       # number of ReadReq accesses(hits+misses)
system.cpu.icache.ReadReq_miss_rate::.cpu.inst     0.013993                       # miss rate for ReadReq accesses
system.cpu.icache.ReadReq_miss_rate::total     0.013993                       # miss rate for ReadReq accesses
system.cpu.icache.ReadReq_avg_miss_latency::.cpu.inst 49410.264197                       # average ReadReq miss latency
system.cpu.icache.ReadReq_avg_miss_latency::total 49410.264197                       # average ReadReq miss latency
system.cpu.icache.ReadReq_mshr_hits::.cpu.inst          660                       # number of ReadReq MSHR hits
system.cpu.icache.ReadReq_mshr_hits::total          660                       # number of ReadReq MSHR hits
system.cpu.icache.ReadReq_mshr_misses::.cpu.inst         2633                       # number of ReadReq MSHR misses
system.cpu.icache.ReadReq_mshr_misses::total         2633                       # number of ReadReq MSHR misses
system.cpu.icache.ReadReq_mshr_miss_latency::.cpu.inst    131361600                       # number of ReadReq MSHR miss cycles
system.cpu.icache.ReadReq_mshr_miss_latency::total    131361600                       # number of ReadReq MSHR miss cycles
system.cpu.icache.ReadReq_mshr_miss_rate::.cpu.inst     0.011188                       # mshr miss rate for ReadReq accesses
system.cpu.icache.ReadReq_mshr_miss_rate::total     0.011188                       # mshr miss rate for ReadReq accesses
system.cpu.icache.ReadReq_avg_mshr_miss_latency::.cpu.inst 49890.467148                       # average ReadReq mshr miss latency
system.cpu.icache.ReadReq_avg_mshr_miss_latency::total 49890.467148                       # average ReadReq mshr miss latency
system.cpu.icache.prefetcher.pwrStateResidencyTicks::UNDEFINED   1077467200                       # Cumulative time (in ticks) in various power states
system.cpu.icache.tags.pwrStateResidencyTicks::UNDEFINED   1077467200                       # Cumulative time (in ticks) in various power states
system.cpu.icache.tags.tagsinuse           253.444196                       # Cycle average of tags in use
system.cpu.icache.tags.total_refs              202057                       # Total number of references to valid blocks.
system.cpu.icache.tags.sampled_refs              2377                       # Sample count of references to valid blocks.
system.cpu.icache.tags.avg_refs             85.005048                       # Average number of references to valid blocks.
system.cpu.icache.tags.warmup_cycle             66400                       # Cycle when the warmup percentage was hit.
system.cpu.icache.tags.occ_blocks::.cpu.inst   253.444196                       # Average occupied blocks per requestor
system.cpu.icache.tags.occ_percent::.cpu.inst     0.990016                       # Average percentage of cache occupancy
system.cpu.icache.tags.occ_percent::total     0.990016                       # Average percentage of cache occupancy
system.cpu.icache.tags.occ_task_id_blocks::1024          256                       # Occupied blocks per task id
system.cpu.icache.tags.age_task_id_blocks_1024::0          108                       # Occupied blocks per task id
system.cpu.icache.tags.age_task_id_blocks_1024::1          130                       # Occupied blocks per task id
system.cpu.icache.tags.age_task_id_blocks_1024::2           18                       # Occupied blocks per task id
system.cpu.icache.tags.occ_task_id_percent::1024            1                       # Percentage of cache occupancy per task id
system.cpu.icache.tags.tag_accesses            473295                       # Number of tag accesses
system.cpu.icache.tags.data_accesses           473295                       # Number of data accesses
system.cpu.dtb.walker.pwrStateResidencyTicks::UNDEFINED   1077467200                       # Cumulative time (in ticks) in various power states
system.cpu.interrupts.clk_domain.clock           6400                       # Clock period in ticks
system.cpu.itb.walker.pwrStateResidencyTicks::UNDEFINED   1077467200                       # Cumulative time (in ticks) in various power states
system.cpu.dcache.pwrStateResidencyTicks::UNDEFINED   1077467200                       # Cumulative time (in ticks) in various power states
system.cpu.dcache.demand_hits::.cpu.data       660569                       # number of demand (read+write) hits
system.cpu.dcache.demand_hits::total           660569                       # number of demand (read+write) hits
system.cpu.dcache.overall_hits::.cpu.data       660569                       # number of overall hits
system.cpu.dcache.overall_hits::total          660569                       # number of overall hits
system.cpu.dcache.demand_misses::.cpu.data        35310                       # number of demand (read+write) misses
system.cpu.dcache.demand_misses::total          35310                       # number of demand (read+write) misses
system.cpu.dcache.overall_misses::.cpu.data        35310                       # number of overall misses
system.cpu.dcache.overall_misses::total         35310                       # number of overall misses
system.cpu.dcache.demand_miss_latency::.cpu.data   1715987200                       # number of demand (read+write) miss cycles
system.cpu.dcache.demand_miss_latency::total   1715987200                       # number of demand (read+write) miss cycles
system.cpu.dcache.overall_miss_latency::.cpu.data   1715987200                       # number of overall miss cycles
system.cpu.dcache.overall_miss_latency::total   1715987200                       # number of overall miss cycles
system.cpu.dcache.demand_accesses::.cpu.data       695879                       # number of demand (read+write) accesses
system.cpu.dcache.demand_accesses::total       695879                       # number of demand (read+write) accesses
system.cpu.dcache.overall_accesses::.cpu.data       695879                       # number of overall (read+write) accesses
system.cpu.dcache.overall_accesses::total       695879                       # number of overall (read+write) accesses
system.cpu.dcache.demand_miss_rate::.cpu.data     0.050742                       # miss rate for demand accesses
system.cpu.dcache.demand_miss_rate::total     0.050742                       # miss rate for demand accesses
system.cpu.dcache.overall_miss_rate::.cpu.data     0.050742                       # miss rate for overall accesses
system.cpu.dcache.overall_miss_rate::total     0.050742                       # miss rate for overall accesses
system.cpu.dcache.demand_avg_miss_latency::.cpu.data 48597.768338                       # average overall miss latency
system.cpu.dcache.demand_avg_miss_latency::total 48597.768338                       # average overall miss latency
system.cpu.dcache.overall_avg_miss_latency::.cpu.data 48597.768338                       # average overall miss latency
system.cpu.dcache.overall_avg_miss_latency::total 48597.768338                       # average overall miss latency
system.cpu.dcache.blocked_cycles::no_mshrs        29976                       # number of cycles access was blocked
system.cpu.dcache.blocked_cycles::no_targets          138                       # number of cycles access was blocked
system.cpu.dcache.blocked::no_mshrs               733                       # number of cycles access was blocked
system.cpu.dcache.blocked::no_targets               1                       # number of cycles access was blocked
system.cpu.dcache.avg_blocked_cycles::no_mshrs    40.894952                       # average number of cycles each access was blocked
system.cpu.dcache.avg_blocked_cycles::no_targets          138                       # average number of cycles each access was blocked
system.cpu.dcache.unused_prefetches              1746                       # number of HardPF blocks evicted w/o reference
system.cpu.dcache.writebacks::.writebacks         2760                       # number of writebacks
system.cpu.dcache.writebacks::total              2760                       # number of writebacks
system.cpu.dcache.demand_mshr_hits::.cpu.data        22707                       # number of demand (read+write) MSHR hits
system.cpu.dcache.demand_mshr_hits::total        22707                       # number of demand (read+write) MSHR hits
system.cpu.dcache.overall_mshr_hits::.cpu.data        22707                       # number of overall MSHR hits
system.cpu.dcache.overall_mshr_hits::total        22707                       # number of overall MSHR hits
system.cpu.dcache.demand_mshr_misses::.cpu.data        12603                       # number of demand (read+write) MSHR misses
system.cpu.dcache.demand_mshr_misses::total        12603                       # number of demand (read+write) MSHR misses
system.cpu.dcache.overall_mshr_misses::.cpu.data        12603                       # number of overall MSHR misses
system.cpu.dcache.overall_mshr_misses::.cpu.dcache.prefetcher         4182                       # number of overall MSHR misses
system.cpu.dcache.overall_mshr_misses::total        16785                       # number of overall MSHR misses
system.cpu.dcache.demand_mshr_miss_latency::.cpu.data    579211200                       # number of demand (read+write) MSHR miss cycles
system.cpu.dcache.demand_mshr_miss_latency::total    579211200                       # number of demand (read+write) MSHR miss cycles
system.cpu.dcache.overall_mshr_miss_latency::.cpu.data    579211200                       # number of overall MSHR miss cycles
system.cpu.dcache.overall_mshr_miss_latency::.cpu.dcache.prefetcher    241228423                       # number of overall MSHR miss cycles
system.cpu.dcache.overall_mshr_miss_latency::total    820439623                       # number of overall MSHR miss cycles
system.cpu.dcache.demand_mshr_miss_rate::.cpu.data     0.018111                       # mshr miss rate for demand accesses
system.cpu.dcache.demand_mshr_miss_rate::total     0.018111                       # mshr miss rate for demand accesses
system.cpu.dcache.overall_mshr_miss_rate::.cpu.data     0.018111                       # mshr miss rate for overall accesses
system.cpu.dcache.overall_mshr_miss_rate::.cpu.dcache.prefetcher          inf                       # mshr miss rate for overall accesses
system.cpu.dcache.overall_mshr_miss_rate::total     0.024121                       # mshr miss rate for overall accesses
system.cpu.dcache.demand_avg_mshr_miss_latency::.cpu.data 45958.200428                       # average overall mshr miss latency
system.cpu.dcache.demand_avg_mshr_miss_latency::total 45958.200428                       # average overall mshr miss latency
system.cpu.dcache.overall_avg_mshr_miss_latency::.cpu.data 45958.200428                       # average overall mshr miss latency
system.cpu.dcache.overall_avg_mshr_miss_latency::.cpu.dcache.prefetcher 57682.549737                       # average overall mshr miss latency
system.cpu.dcache.overall_avg_mshr_miss_latency::total 48879.334108                       # average overall mshr miss latency
system.cpu.dcache.replacements                  15761                       # number of replacements
system.cpu.dcache.ReadReq_hits::.cpu.data       494248                       # number of ReadReq hits
system.cpu.dcache.ReadReq_hits::total          494248                       # number of ReadReq hits
system.cpu.dcache.ReadReq_misses::.cpu.data        33206                       # number of ReadReq misses
system.cpu.dcache.ReadReq_misses::total         33206                       # number of ReadReq misses
system.cpu.dcache.ReadReq_miss_latency::.cpu.data   1612055200                       # number of ReadReq miss cycles
system.cpu.dcache.ReadReq_miss_latency::total   1612055200                       # number of ReadReq miss cycles
system.cpu.dcache.ReadReq_accesses::.cpu.data       527454                       # number of ReadReq accesses(hits+misses)
system.cpu.dcache.ReadReq_accesses::total       527454                       # number of ReadReq accesses(hits+misses)
system.cpu.dcache.ReadReq_miss_rate::.cpu.data     0.062955                       # miss rate for ReadReq accesses
system.cpu.dcache.ReadReq_miss_rate::total     0.062955                       # miss rate for ReadReq accesses
system.cpu.dcache.ReadReq_avg_miss_latency::.cpu.data 48547.105945                       # average ReadReq miss latency
system.cpu.dcache.ReadReq_avg_miss_latency::total 48547.105945                       # average ReadReq miss latency
system.cpu.dcache.ReadReq_mshr_hits::.cpu.data        22670                       # number of ReadReq MSHR hits
system.cpu.dcache.ReadReq_mshr_hits::total        22670                       # number of ReadReq MSHR hits
system.cpu.dcache.ReadReq_mshr_misses::.cpu.data        10536                       # number of ReadReq MSHR misses
system.cpu.dcache.ReadReq_mshr_misses::total        10536                       # number of ReadReq MSHR misses
system.cpu.dcache.ReadReq_mshr_miss_latency::.cpu.data    478132800                       # number of ReadReq MSHR miss cycles
system.cpu.dcache.ReadReq_mshr_miss_latency::total    478132800                       # number of ReadReq MSHR miss cycles
system.cpu.dcache.ReadReq_mshr_miss_rate::.cpu.data     0.019975                       # mshr miss rate for ReadReq accesses
system.cpu.dcache.ReadReq_mshr_miss_rate::total     0.019975                       # mshr miss rate for ReadReq accesses
system.cpu.dcache.ReadReq_avg_mshr_miss_latency::.cpu.data 45380.865604                       # average ReadReq mshr miss latency
system.cpu.dcache.ReadReq_avg_mshr_miss_latency::total 45380.865604                       # average ReadReq mshr miss latency
system.cpu.dcache.WriteReq_hits::.cpu.data       166321                       # number of WriteReq hits
system.cpu.dcache.WriteReq_hits::total         166321                       # number of WriteReq hits
system.cpu.dcache.WriteReq_misses::.cpu.data         2104                       # number of WriteReq misses
system.cpu.dcache.WriteReq_misses::total         2104                       # number of WriteReq misses
system.cpu.dcache.WriteReq_miss_latency::.cpu.data    103932000                       # number of WriteReq miss cycles
system.cpu.dcache.WriteReq_miss_latency::total    103932000                       # number of WriteReq miss cycles
system.cpu.dcache.WriteReq_accesses::.cpu.data       168425                       # number of WriteReq accesses(hits+misses)
system.cpu.dcache.WriteReq_accesses::total       168425                       # number of WriteReq accesses(hits+misses)
system.cpu.dcache.WriteReq_miss_rate::.cpu.data     0.012492                       # miss rate for WriteReq accesses
system.cpu.dcache.WriteReq_miss_rate::total     0.012492                       # miss rate for WriteReq accesses
system.cpu.dcache.WriteReq_avg_miss_latency::.cpu.data 49397.338403                       # average WriteReq miss latency
system.cpu.dcache.WriteReq_avg_miss_latency::total 49397.338403                       # average WriteReq miss latency
system.cpu.dcache.WriteReq_mshr_hits::.cpu.data           37                       # number of WriteReq MSHR hits
system.cpu.dcache.WriteReq_mshr_hits::total           37                       # number of WriteReq MSHR hits
system.cpu.dcache.WriteReq_mshr_misses::.cpu.data         2067                       # number of WriteReq MSHR misses
system.cpu.dcache.WriteReq_mshr_misses::total         2067                       # number of WriteReq MSHR misses
[...]
system.l2cache.demand_mshr_misses::.cpu.dcache.prefetcher           41                       # number of demand (read+write) MSHR misses
system.l2cache.demand_mshr_misses::total          736                       # number of demand (read+write) MSHR misses
system.l2cache.overall_mshr_misses::.cpu.inst          507                       # number of overall MSHR misses
system.l2cache.overall_mshr_misses::.cpu.data          188                       # number of overall MSHR misses
system.l2cache.overall_mshr_misses::.cpu.dcache.prefetcher           41                       # number of overall MSHR misses
system.l2cache.overall_mshr_misses::total          736                       # number of overall MSHR misses
system.l2cache.demand_mshr_miss_latency::.cpu.inst     30241600                       # number of demand (read+write) MSHR miss cycles
system.l2cache.demand_mshr_miss_latency::.cpu.data     11367200                       # number of demand (read+write) MSHR miss cycles
system.l2cache.demand_mshr_miss_latency::.cpu.dcache.prefetcher      2811958                       # number of demand (read+write) MSHR miss cycles
system.l2cache.demand_mshr_miss_latency::total     44420758                       # number of demand (read+write) MSHR miss cycles
system.l2cache.overall_mshr_miss_latency::.cpu.inst     30241600                       # number of overall MSHR miss cycles
system.l2cache.overall_mshr_miss_latency::.cpu.data     11367200                       # number of overall MSHR miss cycles
system.l2cache.overall_mshr_miss_latency::.cpu.dcache.prefetcher      2811958                       # number of overall MSHR miss cycles
system.l2cache.overall_mshr_miss_latency::total     44420758                       # number of overall MSHR miss cycles
system.l2cache.demand_mshr_miss_rate::.cpu.inst     0.376952                       # mshr miss rate for demand accesses
system.l2cache.demand_mshr_miss_rate::.cpu.data     0.583851                       # mshr miss rate for demand accesses
system.l2cache.demand_mshr_miss_rate::.cpu.dcache.prefetcher     0.872340                       # mshr miss rate for demand accesses
system.l2cache.demand_mshr_miss_rate::total     0.429405                       # mshr miss rate for demand accesses
system.l2cache.overall_mshr_miss_rate::.cpu.inst     0.376952                       # mshr miss rate for overall accesses
system.l2cache.overall_mshr_miss_rate::.cpu.data     0.583851                       # mshr miss rate for overall accesses
system.l2cache.overall_mshr_miss_rate::.cpu.dcache.prefetcher     0.872340                       # mshr miss rate for overall accesses
system.l2cache.overall_mshr_miss_rate::total     0.429405                       # mshr miss rate for overall accesses
system.l2cache.demand_avg_mshr_miss_latency::.cpu.inst 59648.126233                       # average overall mshr miss latency
system.l2cache.demand_avg_mshr_miss_latency::.cpu.data 60463.829787                       # average overall mshr miss latency
system.l2cache.demand_avg_mshr_miss_latency::.cpu.dcache.prefetcher 68584.341463                       # average overall mshr miss latency
system.l2cache.demand_avg_mshr_miss_latency::total 60354.290761                       # average overall mshr miss latency
system.l2cache.overall_avg_mshr_miss_latency::.cpu.inst 59648.126233                       # average overall mshr miss latency
system.l2cache.overall_avg_mshr_miss_latency::.cpu.data 60463.829787                       # average overall mshr miss latency
system.l2cache.overall_avg_mshr_miss_latency::.cpu.dcache.prefetcher 68584.341463                       # average overall mshr miss latency
system.l2cache.overall_avg_mshr_miss_latency::total 60354.290761                       # average overall mshr miss latency
system.l2cache.replacements                       748                       # number of replacements
system.l2cache.WritebackDirty_hits::.writebacks           92                       # number of WritebackDirty hits
system.l2cache.WritebackDirty_hits::total           92                       # number of WritebackDirty hits
system.l2cache.WritebackDirty_accesses::.writebacks           92                       # number of WritebackDirty accesses(hits+misses)
system.l2cache.WritebackDirty_accesses::total           92                       # number of WritebackDirty accesses(hits+misses)
system.l2cache.CleanEvict_mshr_misses::.writebacks           26                       # number of CleanEvict MSHR misses
system.l2cache.CleanEvict_mshr_misses::total           26                       # number of CleanEvict MSHR misses
system.l2cache.CleanEvict_mshr_miss_rate::.writebacks          inf                       # mshr miss rate for CleanEvict accesses
system.l2cache.CleanEvict_mshr_miss_rate::total          inf                       # mshr miss rate for CleanEvict accesses
system.l2cache.ReadExReq_hits::.cpu.data            4                       # number of ReadExReq hits
system.l2cache.ReadExReq_hits::total                4                       # number of ReadExReq hits
system.l2cache.ReadExReq_misses::.cpu.data           34                       # number of ReadExReq misses
system.l2cache.ReadExReq_misses::total             34                       # number of ReadExReq misses
system.l2cache.ReadExReq_miss_latency::.cpu.data      2488800                       # number of ReadExReq miss cycles
system.l2cache.ReadExReq_miss_latency::total      2488800                       # number of ReadExReq miss cycles
system.l2cache.ReadExReq_accesses::.cpu.data           38                       # number of ReadExReq accesses(hits+misses)
system.l2cache.ReadExReq_accesses::total           38                       # number of ReadExReq accesses(hits+misses)
system.l2cache.ReadExReq_miss_rate::.cpu.data     0.894737                       # miss rate for ReadExReq accesses
system.l2cache.ReadExReq_miss_rate::total     0.894737                       # miss rate for ReadExReq accesses
system.l2cache.ReadExReq_avg_miss_latency::.cpu.data        73200                       # average ReadExReq miss latency
system.l2cache.ReadExReq_avg_miss_latency::total        73200                       # average ReadExReq miss latency
system.l2cache.ReadExReq_mshr_misses::.cpu.data           34                       # number of ReadExReq MSHR misses
system.l2cache.ReadExReq_mshr_misses::total           34                       # number of ReadExReq MSHR misses
system.l2cache.ReadExReq_mshr_miss_latency::.cpu.data      2216800                       # number of ReadExReq MSHR miss cycles
system.l2cache.ReadExReq_mshr_miss_latency::total      2216800                       # number of ReadExReq MSHR miss cycles
system.l2cache.ReadExReq_mshr_miss_rate::.cpu.data     0.894737                       # mshr miss rate for ReadExReq accesses
system.l2cache.ReadExReq_mshr_miss_rate::total     0.894737                       # mshr miss rate for ReadExReq accesses
system.l2cache.ReadExReq_avg_mshr_miss_latency::.cpu.data        65200                       # average ReadExReq mshr miss latency
system.l2cache.ReadExReq_avg_mshr_miss_latency::total        65200                       # average ReadExReq mshr miss latency
system.l2cache.ReadSharedReq_hits::.cpu.inst          838                       # number of ReadSharedReq hits
system.l2cache.ReadSharedReq_hits::.cpu.data          129                       # number of ReadSharedReq hits
system.l2cache.ReadSharedReq_hits::.cpu.dcache.prefetcher            6                       # number of ReadSharedReq hits
system.l2cache.ReadSharedReq_hits::total          973                       # number of ReadSharedReq hits
system.l2cache.ReadSharedReq_misses::.cpu.inst          507                       # number of ReadSharedReq misses
system.l2cache.ReadSharedReq_misses::.cpu.data          155                       # number of ReadSharedReq misses
system.l2cache.ReadSharedReq_misses::.cpu.dcache.prefetcher           41                       # number of ReadSharedReq misses
system.l2cache.ReadSharedReq_misses::total          703                       # number of ReadSharedReq misses
system.l2cache.ReadSharedReq_miss_latency::.cpu.inst     34297600                       # number of ReadSharedReq miss cycles
system.l2cache.ReadSharedReq_miss_latency::.cpu.data     10438800                       # number of ReadSharedReq miss cycles
system.l2cache.ReadSharedReq_miss_latency::.cpu.dcache.prefetcher      3139958                       # number of ReadSharedReq miss cycles
system.l2cache.ReadSharedReq_miss_latency::total     47876358                       # number of ReadSharedReq miss cycles
system.l2cache.ReadSharedReq_accesses::.cpu.inst         1345                       # number of ReadSharedReq accesses(hits+misses)
system.l2cache.ReadSharedReq_accesses::.cpu.data          284                       # number of ReadSharedReq accesses(hits+misses)
system.l2cache.ReadSharedReq_accesses::.cpu.dcache.prefetcher           47                       # number of ReadSharedReq accesses(hits+misses)
system.l2cache.ReadSharedReq_accesses::total         1676                       # number of ReadSharedReq accesses(hits+misses)
system.l2cache.ReadSharedReq_miss_rate::.cpu.inst     0.376952                       # miss rate for ReadSharedReq accesses
system.l2cache.ReadSharedReq_miss_rate::.cpu.data     0.545775                       # miss rate for ReadSharedReq accesses
system.l2cache.ReadSharedReq_miss_rate::.cpu.dcache.prefetcher     0.872340                       # miss rate for ReadSharedReq accesses
system.l2cache.ReadSharedReq_miss_rate::total     0.419451                       # miss rate for ReadSharedReq accesses
system.l2cache.ReadSharedReq_avg_miss_latency::.cpu.inst 67648.126233                       # average ReadSharedReq miss latency
system.l2cache.ReadSharedReq_avg_miss_latency::.cpu.data 67347.096774                       # average ReadSharedReq miss latency
system.l2cache.ReadSharedReq_avg_miss_latency::.cpu.dcache.prefetcher 76584.341463                       # average ReadSharedReq miss latency
system.l2cache.ReadSharedReq_avg_miss_latency::total 68102.927454                       # average ReadSharedReq miss latency
system.l2cache.ReadSharedReq_mshr_hits::.cpu.data            1                       # number of ReadSharedReq MSHR hits
system.l2cache.ReadSharedReq_mshr_hits::total            1                       # number of ReadSharedReq MSHR hits
system.l2cache.ReadSharedReq_mshr_misses::.cpu.inst          507                       # number of ReadSharedReq MSHR misses
system.l2cache.ReadSharedReq_mshr_misses::.cpu.data          154                       # number of ReadSharedReq MSHR misses
system.l2cache.ReadSharedReq_mshr_misses::.cpu.dcache.prefetcher           41                       # number of ReadSharedReq MSHR misses
system.l2cache.ReadSharedReq_mshr_misses::total          702                       # number of ReadSharedReq MSHR misses
system.l2cache.ReadSharedReq_mshr_miss_latency::.cpu.inst     30241600                       # number of ReadSharedReq MSHR miss cycles
system.l2cache.ReadSharedReq_mshr_miss_latency::.cpu.data      9150400                       # number of ReadSharedReq MSHR miss cycles
system.l2cache.ReadSharedReq_mshr_miss_latency::.cpu.dcache.prefetcher      2811958                       # number of ReadSharedReq MSHR miss cycles
system.l2cache.ReadSharedReq_mshr_miss_latency::total     42203958                       # number of ReadSharedReq MSHR miss cycles
system.l2cache.ReadSharedReq_mshr_miss_rate::.cpu.inst     0.376952                       # mshr miss rate for ReadSharedReq accesses
system.l2cache.ReadSharedReq_mshr_miss_rate::.cpu.data     0.542254                       # mshr miss rate for ReadSharedReq accesses
system.l2cache.ReadSharedReq_mshr_miss_rate::.cpu.dcache.prefetcher     0.872340                       # mshr miss rate for ReadSharedReq accesses
system.l2cache.ReadSharedReq_mshr_miss_rate::total     0.418854                       # mshr miss rate for ReadSharedReq accesses
system.l2cache.ReadSharedReq_avg_mshr_miss_latency::.cpu.inst 59648.126233                       # average ReadSharedReq mshr miss latency
system.l2cache.ReadSharedReq_avg_mshr_miss_latency::.cpu.data 59418.181818                       # average ReadSharedReq mshr miss latency
system.l2cache.ReadSharedReq_avg_mshr_miss_latency::.cpu.dcache.prefetcher 68584.341463                       # average ReadSharedReq mshr miss latency
system.l2cache.ReadSharedReq_avg_mshr_miss_latency::total 60119.598291                       # average ReadSharedReq mshr miss latency
system.l2cache.prefetcher.pwrStateResidencyTicks::UNDEFINED     55706800                       # Cumulative time (in ticks) in various power states
system.l2cache.tags.pwrStateResidencyTicks::UNDEFINED     55706800                       # Cumulative time (in ticks) in various power states
system.l2cache.tags.tagsinuse                    4096                       # Cycle average of tags in use
system.l2cache.tags.total_refs                  15763                       # Total number of references to valid blocks.
system.l2cache.tags.sampled_refs                 4844                       # Sample count of references to valid blocks.
system.l2cache.tags.avg_refs                 3.254129                       # Average number of references to valid blocks.
system.l2cache.tags.warmup_cycle                    0                       # Cycle when the warmup percentage was hit.
system.l2cache.tags.occ_blocks::.writebacks    41.022001                       # Average occupied blocks per requestor
system.l2cache.tags.occ_blocks::.cpu.inst  1170.155037                       # Average occupied blocks per requestor
system.l2cache.tags.occ_blocks::.cpu.data  1900.913984                       # Average occupied blocks per requestor
system.l2cache.tags.occ_blocks::.cpu.dcache.prefetcher   869.795858                       # Average occupied blocks per requestor
system.l2cache.tags.occ_blocks::.l2cache.prefetcher   114.113121                       # Average occupied blocks per requestor
system.l2cache.tags.occ_percent::.writebacks     0.010015                       # Average percentage of cache occupancy
system.l2cache.tags.occ_percent::.cpu.inst     0.285682                       # Average percentage of cache occupancy
system.l2cache.tags.occ_percent::.cpu.data     0.464090                       # Average percentage of cache occupancy
system.l2cache.tags.occ_percent::.cpu.dcache.prefetcher     0.212353                       # Average percentage of cache occupancy
system.l2cache.tags.occ_percent::.l2cache.prefetcher     0.027860                       # Average percentage of cache occupancy
system.l2cache.tags.occ_percent::total              1                       # Average percentage of cache occupancy
system.l2cache.tags.occ_task_id_blocks::1022          882                       # Occupied blocks per task id
system.l2cache.tags.occ_task_id_blocks::1024         3214                       # Occupied blocks per task id
system.l2cache.tags.age_task_id_blocks_1022::0            7                       # Occupied blocks per task id
system.l2cache.tags.age_task_id_blocks_1022::1           36                       # Occupied blocks per task id
system.l2cache.tags.age_task_id_blocks_1022::4          839                       # Occupied blocks per task id
system.l2cache.tags.age_task_id_blocks_1024::0          168                       # Occupied blocks per task id
system.l2cache.tags.age_task_id_blocks_1024::1          538                       # Occupied blocks per task id
system.l2cache.tags.age_task_id_blocks_1024::3            1                       # Occupied blocks per task id
system.l2cache.tags.age_task_id_blocks_1024::4         2507                       # Occupied blocks per task id
system.l2cache.tags.occ_task_id_percent::1022     0.215332                       # Percentage of cache occupancy per task id
system.l2cache.tags.occ_task_id_percent::1024     0.784668                       # Percentage of cache occupancy per task id
system.l2cache.tags.tag_accesses                28164                       # Number of tag accesses
system.l2cache.tags.data_accesses               28164                       # Number of data accesses
system.mem_ctrl.pwrStateResidencyTicks::UNDEFINED     55706800                       # Cumulative time (in ticks) in various power states
system.mem_ctrl.bytes_read::.cpu.inst           32448                       # Number of bytes read from this memory
system.mem_ctrl.bytes_read::.cpu.data           12032                       # Number of bytes read from this memory
system.mem_ctrl.bytes_read::.cpu.dcache.prefetcher         2624                       # Number of bytes read from this memory
system.mem_ctrl.bytes_read::total               47104                       # Number of bytes read from this memory
system.mem_ctrl.bytes_inst_read::.cpu.inst        32448                       # Number of instructions bytes read from this memory
system.mem_ctrl.bytes_inst_read::total          32448                       # Number of instructions bytes read from this memory
system.mem_ctrl.bytes_written::.writebacks         2816                       # Number of bytes written to this memory
system.mem_ctrl.bytes_written::total             2816                       # Number of bytes written to this memory
system.mem_ctrl.num_reads::.cpu.inst              507                       # Number of read requests responded to by this memory
system.mem_ctrl.num_reads::.cpu.data              188                       # Number of read requests responded to by this memory
system.mem_ctrl.num_reads::.cpu.dcache.prefetcher           41                       # Number of read requests responded to by this memory
system.mem_ctrl.num_reads::total                  736                       # Number of read requests responded to by this memory
system.mem_ctrl.num_writes::.writebacks            44                       # Number of write requests responded to by this memory
system.mem_ctrl.num_writes::total                  44                       # Number of write requests responded to by this memory
system.mem_ctrl.bw_read::.cpu.inst          582478261                       # Total read bandwidth from this memory (bytes/s)
system.mem_ctrl.bw_read::.cpu.data          215987994                       # Total read bandwidth from this memory (bytes/s)
system.mem_ctrl.bw_read::.cpu.dcache.prefetcher     47103765                       # Total read bandwidth from this memory (bytes/s)
system.mem_ctrl.bw_read::total              845570020                       # Total read bandwidth from this memory (bytes/s)
system.mem_ctrl.bw_inst_read::.cpu.inst     582478261                       # Instruction read bandwidth from this memory (bytes/s)
system.mem_ctrl.bw_inst_read::total         582478261                       # Instruction read bandwidth from this memory (bytes/s)
system.mem_ctrl.bw_write::.writebacks        50550382                       # Write bandwidth from this memory (bytes/s)
system.mem_ctrl.bw_write::total              50550382                       # Write bandwidth from this memory (bytes/s)
system.mem_ctrl.bw_total::.writebacks        50550382                       # Total bandwidth to/from this memory (bytes/s)
system.mem_ctrl.bw_total::.cpu.inst         582478261                       # Total bandwidth to/from this memory (bytes/s)
system.mem_ctrl.bw_total::.cpu.data         215987994                       # Total bandwidth to/from this memory (bytes/s)
system.mem_ctrl.bw_total::.cpu.dcache.prefetcher     47103765                       # Total bandwidth to/from this memory (bytes/s)
system.mem_ctrl.bw_total::total             896120402                       # Total bandwidth to/from this memory (bytes/s)

---------- End Simulation Statistics   ----------
