
---------- Begin Simulation Statistics ----------
final_tick                                 3875638000                       # Number of ticks from beginning of simulation (restored from checkpoints and never reset)
host_inst_rate                                 187976                       # Simulator instruction rate (inst/s)
host_mem_usage                                4407848                       # Number of bytes of host memory used
host_op_rate                                   354722                       # Simulator op (including micro ops) rate (op/s)
host_seconds                                    49.92                       # Real time elapsed on the host
host_tick_rate                               77632035                       # Simulator tick rate (ticks/s)
sim_freq                                 1000000000000                       # Frequency of simulated ticks
sim_insts                                     9384352                       # Number of instructions simulated
sim_ops                                      17708848                       # Number of ops (including micro ops) simulated
sim_seconds                                  0.003876                       # Number of seconds simulated
sim_ticks                                  3875638000                       # Number of ticks simulated
system.cpu.branchPred.BTBCorrect                    0                       # Number of correct BTB predictions (this stat may not work properly.
system.cpu.branchPred.BTBHitPct              0.000000                       # BTB Hit Percentage
system.cpu.branchPred.BTBHits                       0                       # Number of BTB hits
system.cpu.branchPred.BTBLookups              1873161                       # Number of BTB lookups
system.cpu.branchPred.RASInCorrect                  8                       # Number of incorrect RAS predictions.
system.cpu.branchPred.condIncorrect            104427                       # Number of conditional branches incorrect
system.cpu.branchPred.condPredicted           1940456                       # Number of conditional branches predicted
system.cpu.branchPred.indirectHits             908100                       # Number of indirect target hits.
system.cpu.branchPred.indirectLookups         1873161                       # Number of indirect predictor lookups.
system.cpu.branchPred.indirectMisses           965061                       # Number of indirect misses.
system.cpu.branchPred.lookups                 2206244                       # Number of BP lookups
system.cpu.branchPred.usedRAS                  136414                       # Number of times the RAS was used to get a target.
system.cpu.branchPredindirectMispredicted        78605                       # Number of mispredicted indirect branches.
system.cpu.cc_regfile_reads                  10395030                       # number of cc regfile reads
system.cpu.cc_regfile_writes                  6840055                       # number of cc regfile writes
system.cpu.commit.amos                              0                       # Number of atomic instructions committed
system.cpu.commit.branchMispredicts            104567                       # The number of times a branch was mispredicted
system.cpu.commit.branches                    1759126                       # Number of branches committed
system.cpu.commit.bw_lim_events               2784254                       # number cycles where commit BW limit reached
system.cpu.commit.commitNonSpecStalls             764                       # The number of times commit has been forced to stall to communicate backwards
system.cpu.commit.commitSquashedInsts         2234339                       # The number of squashed insts skipped by commit
system.cpu.commit.committedInsts              9384352                       # Number of instructions committed
system.cpu.commit.committedOps               17708848                       # Number of ops (including micro ops) committed
system.cpu.commit.committed_per_cycle::samples      8840482                       # Number of insts commited each cycle
system.cpu.commit.committed_per_cycle::mean     2.003154                       # Number of insts commited each cycle
system.cpu.commit.committed_per_cycle::stdev     1.643143                       # Number of insts commited each cycle
system.cpu.commit.committed_per_cycle::underflows            0      0.00%      0.00% # Number of insts commited each cycle
system.cpu.commit.committed_per_cycle::0      2536544     28.69%     28.69% # Number of insts commited each cycle
system.cpu.commit.committed_per_cycle::1      1526505     17.27%     45.96% # Number of insts commited each cycle
system.cpu.commit.committed_per_cycle::2       934210     10.57%     56.53% # Number of insts commited each cycle
system.cpu.commit.committed_per_cycle::3      1058969     11.98%     68.51% # Number of insts commited each cycle
system.cpu.commit.committed_per_cycle::4      2784254     31.49%    100.00% # Number of insts commited each cycle
system.cpu.commit.committed_per_cycle::overflows            0      0.00%    100.00% # Number of insts commited each cycle
system.cpu.commit.committed_per_cycle::min_value            0                       # Number of insts commited each cycle
system.cpu.commit.committed_per_cycle::max_value            4                       # Number of insts commited each cycle
system.cpu.commit.committed_per_cycle::total      8840482                       # Number of insts commited each cycle
system.cpu.commit.fp_insts                     573386                       # Number of committed floating point instructions.
system.cpu.commit.function_calls               119176                       # Number of function calls committed.
system.cpu.commit.int_insts                  17244355                       # Number of committed integer instructions.
system.cpu.commit.loads                       2195121                       # Number of loads committed
system.cpu.commit.membars                           1                       # Number of memory barriers committed
system.cpu.commit.op_class_0::No_OpClass        70213      0.40%      0.40% # Class of committed instruction
system.cpu.commit.op_class_0::IntAlu         13579653     76.68%     77.08% # Class of committed instruction
system.cpu.commit.op_class_0::IntMult          108350      0.61%     77.69% # Class of committed instruction
system.cpu.commit.op_class_0::IntDiv            37486      0.21%     77.90% # Class of committed instruction
system.cpu.commit.op_class_0::FloatAdd          22853      0.13%     78.03% # Class of committed instruction
system.cpu.commit.op_class_0::FloatCmp              0      0.00%     78.03% # Class of committed instruction
system.cpu.commit.op_class_0::FloatCvt           1232      0.01%     78.04% # Class of committed instruction
system.cpu.commit.op_class_0::FloatMult             0      0.00%     78.04% # Class of committed instruction
system.cpu.commit.op_class_0::FloatMultAcc            0      0.00%     78.04% # Class of committed instruction
system.cpu.commit.op_class_0::FloatDiv              0      0.00%     78.04% # Class of committed instruction
system.cpu.commit.op_class_0::FloatMisc             0      0.00%     78.04% # Class of committed instruction
system.cpu.commit.op_class_0::FloatSqrt             0      0.00%     78.04% # Class of committed instruction
system.cpu.commit.op_class_0::SimdAdd            6216      0.04%     78.07% # Class of committed instruction
system.cpu.commit.op_class_0::SimdAddAcc            0      0.00%     78.07% # Class of committed instruction
system.cpu.commit.op_class_0::SimdAlu           91182      0.51%     78.59% # Class of committed instruction
system.cpu.commit.op_class_0::SimdCmp               0      0.00%     78.59% # Class of committed instruction
system.cpu.commit.op_class_0::SimdCvt           92126      0.52%     79.11% # Class of committed instruction
system.cpu.commit.op_class_0::SimdMisc         186538      1.05%     80.16% # Class of committed instruction
system.cpu.commit.op_class_0::SimdMult              0      0.00%     80.16% # Class of committed instruction
system.cpu.commit.op_class_0::SimdMultAcc            0      0.00%     80.16% # Class of committed instruction
system.cpu.commit.op_class_0::SimdShift          1112      0.01%     80.17% # Class of committed instruction
system.cpu.commit.op_class_0::SimdShiftAcc            0      0.00%     80.17% # Class of committed instruction
system.cpu.commit.op_class_0::SimdDiv               0      0.00%     80.17% # Class of committed instruction
system.cpu.commit.op_class_0::SimdSqrt              0      0.00%     80.17% # Class of committed instruction
system.cpu.commit.op_class_0::SimdFloatAdd            0      0.00%     80.17% # Class of committed instruction
system.cpu.commit.op_class_0::SimdFloatAlu            0      0.00%     80.17% # Class of committed instruction
system.cpu.commit.op_class_0::SimdFloatCmp            0      0.00%     80.17% # Class of committed instruction
system.cpu.commit.op_class_0::SimdFloatCvt            0      0.00%     80.17% # Class of committed instruction
system.cpu.commit.op_class_0::SimdFloatDiv            0      0.00%     80.17% # Class of committed instruction
system.cpu.commit.op_class_0::SimdFloatMisc            0      0.00%     80.17% # Class of committed instruction
system.cpu.commit.op_class_0::SimdFloatMult            0      0.00%     80.17% # Class of committed instruction
system.cpu.commit.op_class_0::SimdFloatMultAcc            0      0.00%     80.17% # Class of committed instruction
system.cpu.commit.op_class_0::SimdFloatSqrt            0      0.00%     80.17% # Class of committed instruction
system.cpu.commit.op_class_0::SimdReduceAdd            0      0.00%     80.17% # Class of committed instruction
system.cpu.commit.op_class_0::SimdReduceAlu            0      0.00%     80.17% # Class of committed instruction
system.cpu.commit.op_class_0::SimdReduceCmp            0      0.00%     80.17% # Class of committed instruction
system.cpu.commit.op_class_0::SimdFloatReduceAdd            0      0.00%     80.17% # Class of committed instruction
system.cpu.commit.op_class_0::SimdFloatReduceCmp            0      0.00%     80.17% # Class of committed instruction
system.cpu.commit.op_class_0::SimdAes               0      0.00%     80.17% # Class of committed instruction
system.cpu.commit.op_class_0::SimdAesMix            0      0.00%     80.17% # Class of committed instruction
system.cpu.commit.op_class_0::SimdSha1Hash            0      0.00%     80.17% # Class of committed instruction
system.cpu.commit.op_class_0::SimdSha1Hash2            0      0.00%     80.17% # Class of committed instruction
system.cpu.commit.op_class_0::SimdSha256Hash            0      0.00%     80.17% # Class of committed instruction
system.cpu.commit.op_class_0::SimdSha256Hash2            0      0.00%     80.17% # Class of committed instruction
system.cpu.commit.op_class_0::SimdShaSigma2            0      0.00%     80.17% # Class of committed instruction
system.cpu.commit.op_class_0::SimdShaSigma3            0      0.00%     80.17% # Class of committed instruction
system.cpu.commit.op_class_0::SimdPredAlu            0      0.00%     80.17% # Class of committed instruction
system.cpu.commit.op_class_0::MemRead         2115943     11.95%     92.12% # Class of committed instruction
system.cpu.commit.op_class_0::MemWrite        1284617      7.25%     99.37% # Class of committed instruction
system.cpu.commit.op_class_0::FloatMemRead        79178      0.45%     99.82% # Class of committed instruction
system.cpu.commit.op_class_0::FloatMemWrite        32149      0.18%    100.00% # Class of committed instruction
system.cpu.commit.op_class_0::IprAccess             0      0.00%    100.00% # Class of committed instruction
system.cpu.commit.op_class_0::InstPrefetch            0      0.00%    100.00% # Class of committed instruction
system.cpu.commit.op_class_0::total          17708848                       # Class of committed instruction
system.cpu.commit.refs                        3511887                       # Number of memory references committed
system.cpu.commit.swp_count                         0                       # Number of s/w prefetches committed
system.cpu.commit.vec_insts                         0                       # Number of committed Vector instructions.
system.cpu.committedInsts                     9384352                       # Number of Instructions Simulated
system.cpu.committedOps                      17708848                       # Number of Ops (including micro ops) Simulated
system.cpu.cpi                               1.032474                       # CPI: Cycles Per Instruction
system.cpu.cpi_total                         1.032474                       # CPI: Total CPI of All Threads
system.cpu.dcache.prefetcher.num_hwpf_issued         8730                       # number of hwpf issued
system.cpu.dcache.prefetcher.pfBufferHit        33093                       # number of redundant prefetches already in prefetch queue
system.cpu.dcache.prefetcher.pfIdentified        49813                       # number of prefetch candidates identified
system.cpu.dcache.prefetcher.pfInCache              0                       # number of redundant prefetches already in cache/mshr dropped
system.cpu.dcache.prefetcher.pfRemovedFull            0                       # number of prefetches dropped due to prefetch queue size
system.cpu.dcache.prefetcher.pfSpanPage          4731                       # number of prefetches that crossed the page
system.cpu.decode.BlockedCycles               1474421                       # Number of cycles decode is blocked
system.cpu.decode.DecodedInsts               20744169                       # Number of instructions handled by decode
system.cpu.decode.IdleCycles                  2195420                       # Number of cycles decode is idle
system.cpu.decode.RunCycles                   5482208                       # Number of cycles decode is running
system.cpu.decode.SquashCycles                 104681                       # Number of cycles decode is squashing
system.cpu.decode.UnblockCycles                224292                       # Number of cycles decode is unblocking
system.cpu.dtb.rdAccesses                     2406172                       # TLB accesses on read requests
system.cpu.dtb.rdMisses                          2057                       # TLB misses on read requests
system.cpu.dtb.wrAccesses                     1365613                       # TLB accesses on write requests
system.cpu.dtb.wrMisses                           173                       # TLB misses on write requests
system.cpu.fetch.Branches                     2206244                       # Number of branches that fetch encountered
system.cpu.fetch.CacheLines                   1569531                       # Number of cache lines fetched
system.cpu.fetch.Cycles                       7114050                       # Number of cycles fetch has run and was not squashing or blocked
system.cpu.fetch.IcacheSquashes                 25041                       # Number of outstanding Icache misses that were squashed
system.cpu.fetch.IcacheWaitRetryStallCycles            1                       # Number of stall cycles due to full MSHR
system.cpu.fetch.Insts                       11346021                       # Number of instructions fetch has processed
system.cpu.fetch.MiscStallCycles                  202                       # Number of cycles fetch has spent waiting on interrupts, or bad addresses, or out of MSHRs
system.cpu.fetch.PendingQuiesceStallCycles            6                       # Number of stall cycles due to pending quiesce instructions
system.cpu.fetch.PendingTrapStallCycles           950                       # Number of stall cycles due to pending traps
system.cpu.fetch.SquashCycles                  209362                       # Number of cycles fetch has spent squashing
system.cpu.fetch.branchRate                  0.227704                       # Number of branch fetches per cycle
system.cpu.fetch.icacheStallCycles            2261132                       # Number of cycles fetch is stalled on an Icache miss
system.cpu.fetch.predictedBranches            1044514                       # Number of branches that fetch has predicted taken
system.cpu.fetch.rate                        1.171009                       # Number of inst fetches per cycle
system.cpu.fetch.rateDist::samples            9481022                       # Number of instructions fetched each cycle (Total)
system.cpu.fetch.rateDist::mean              2.249897                       # Number of instructions fetched each cycle (Total)
system.cpu.fetch.rateDist::stdev             1.877944                       # Number of instructions fetched each cycle (Total)
system.cpu.fetch.rateDist::underflows               0      0.00%      0.00% # Number of instructions fetched each cycle (Total)
system.cpu.fetch.rateDist::0                  3482760     36.73%     36.73% # Number of instructions fetched each cycle (Total)
system.cpu.fetch.rateDist::1                   592630      6.25%     42.98% # Number of instructions fetched each cycle (Total)
system.cpu.fetch.rateDist::2                   266922      2.82%     45.80% # Number of instructions fetched each cycle (Total)
system.cpu.fetch.rateDist::3                   349988      3.69%     49.49% # Number of instructions fetched each cycle (Total)
system.cpu.fetch.rateDist::4                  4788722     50.51%    100.00% # Number of instructions fetched each cycle (Total)
system.cpu.fetch.rateDist::overflows                0      0.00%    100.00% # Number of instructions fetched each cycle (Total)
system.cpu.fetch.rateDist::min_value                0                       # Number of instructions fetched each cycle (Total)
system.cpu.fetch.rateDist::max_value                4                       # Number of instructions fetched each cycle (Total)
system.cpu.fetch.rateDist::total              9481022                       # Number of instructions fetched each cycle (Total)
system.cpu.fp_regfile_reads                    959387                       # number of floating regfile reads
system.cpu.fp_regfile_writes                   505422                       # number of floating regfile writes
system.cpu.fuPool.fu_ticks_busy::IntALU(0)    978154000                       # Total ticks fu was busy
system.cpu.fuPool.fu_ticks_busy::IntALU(1)    978153600                       # Total ticks fu was busy
system.cpu.fuPool.fu_ticks_busy::IntALU(2)    978153600                       # Total ticks fu was busy
system.cpu.fuPool.fu_ticks_busy::IntALU(3)    978153600                       # Total ticks fu was busy
system.cpu.fuPool.fu_ticks_busy::IntALU(4)    978153600                       # Total ticks fu was busy
system.cpu.fuPool.fu_ticks_busy::IntALU(5)    978153600                       # Total ticks fu was busy
system.cpu.fuPool.fu_ticks_busy::IntMultDiv(0)     29976000                       # Total ticks fu was busy
system.cpu.fuPool.fu_ticks_busy::IntMultDiv(1)     29975200                       # Total ticks fu was busy
system.cpu.fuPool.fu_ticks_busy::FP_ALU(0)      2552800                       # Total ticks fu was busy
system.cpu.fuPool.fu_ticks_busy::FP_ALU(1)      2552800                       # Total ticks fu was busy
system.cpu.fuPool.fu_ticks_busy::FP_ALU(2)      2552800                       # Total ticks fu was busy
system.cpu.fuPool.fu_ticks_busy::FP_ALU(3)      2552800                       # Total ticks fu was busy
system.cpu.fuPool.fu_ticks_busy::FP_MultDiv(0)            0                       # Total ticks fu was busy
system.cpu.fuPool.fu_ticks_busy::FP_MultDiv(1)            0                       # Total ticks fu was busy
system.cpu.fuPool.fu_ticks_busy::SIMD_Unit(0)     39168800                       # Total ticks fu was busy
system.cpu.fuPool.fu_ticks_busy::SIMD_Unit(1)     39244800                       # Total ticks fu was busy
system.cpu.fuPool.fu_ticks_busy::SIMD_Unit(2)     39098800                       # Total ticks fu was busy
system.cpu.fuPool.fu_ticks_busy::SIMD_Unit(3)     36356000                       # Total ticks fu was busy
system.cpu.fuPool.fu_ticks_busy::PredALU(0)            0                       # Total ticks fu was busy
system.cpu.fuPool.fu_ticks_busy::RdWrPort(0)    383490000                       # Total ticks fu was busy
system.cpu.fuPool.fu_ticks_busy::RdWrPort(1)    383248400                       # Total ticks fu was busy
system.cpu.fuPool.fu_ticks_busy::RdWrPort(2)    383508800                       # Total ticks fu was busy
system.cpu.fuPool.fu_ticks_busy::RdWrPort(3)    383411200                       # Total ticks fu was busy
system.cpu.fuPool.fu_ticks_busy::IprPort(0)            0                       # Total ticks fu was busy
system.cpu.fuPool.fu_ticks_busy::total     7626611200                       # Total ticks fu was busy
system.cpu.icache.prefetcher.num_hwpf_issued            0                       # number of hwpf issued
system.cpu.icache.prefetcher.pfBufferHit            0                       # number of redundant prefetches already in prefetch queue
system.cpu.icache.prefetcher.pfIdentified            0                       # number of prefetch candidates identified
system.cpu.icache.prefetcher.pfInCache              0                       # number of redundant prefetches already in cache/mshr dropped
system.cpu.icache.prefetcher.pfRemovedFull            0                       # number of prefetches dropped due to prefetch queue size
system.cpu.icache.prefetcher.pfSpanPage             0                       # number of prefetches that crossed the page
system.cpu.idleCycles                          208074                       # Total number of cycles that the CPU has spent unscheduled due to idling
system.cpu.iew.branchMispredicts               138274                       # Number of branch mispredicts detected at execute
system.cpu.iew.exec_branches                  1858001                       # Number of branches executed
system.cpu.iew.exec_nop                             0                       # number of nop insts executed
system.cpu.iew.exec_rate                     1.962906                       # Inst execution rate
system.cpu.iew.exec_refs                      3771204                       # number of memory reference insts executed
system.cpu.iew.exec_stores                    1363314                       # Number of stores executed
system.cpu.iew.exec_swp                             0                       # number of swp insts executed
system.cpu.iew.iewBlockCycles                 1014458                       # Number of cycles IEW is blocking
system.cpu.iew.iewDispLoadInsts               2519787                       # Number of dispatched load instructions
system.cpu.iew.iewDispNonSpecInsts                970                       # Number of dispatched non-speculative instructions
system.cpu.iew.iewDispSquashedInsts               547                       # Number of squashed instructions skipped by dispatch
system.cpu.iew.iewDispStoreInsts              1455600                       # Number of dispatched store instructions
system.cpu.iew.iewDispatchedInsts            19943115                       # Number of instructions dispatched to IQ
system.cpu.iew.iewExecLoadInsts               2407890                       # Number of load instructions executed
system.cpu.iew.iewExecSquashedInsts            142221                       # Number of squashed instructions skipped in execute
system.cpu.iew.iewExecutedInsts              19018787                       # Number of executed instructions
system.cpu.iew.iewIQFullEvents                   3421                       # Number of times the IQ has become full, causing a stall
system.cpu.iew.iewIdleCycles                        0                       # Number of cycles IEW is idle
system.cpu.iew.iewLSQFullEvents                  9131                       # Number of times the LSQ has become full, causing a stall
system.cpu.iew.iewSquashCycles                 104681                       # Number of cycles IEW is squashing
system.cpu.iew.iewUnblockCycles                 15362                       # Number of cycles IEW is unblocking
system.cpu.iew.lsq.thread0.blockedLoads             0                       # Number of blocked loads due to partial load-store forwarding
system.cpu.iew.lsq.thread0.cacheBlocked           612                       # Number of times an access to memory failed due to the cache being blocked
system.cpu.iew.lsq.thread0.forwLoads           176298                       # Number of loads that had data forwarded from stores
system.cpu.iew.lsq.thread0.ignoredResponses          260                       # Number of memory responses ignored because the instruction is squashed
system.cpu.iew.lsq.thread0.invAddrLoads             0                       # Number of loads ignored due to an invalid address
system.cpu.iew.lsq.thread0.invAddrSwpfs             0                       # Number of software prefetches ignored due to an invalid address
system.cpu.iew.lsq.thread0.memOrderViolation          126                       # Number of memory ordering violations
system.cpu.iew.lsq.thread0.rescheduledLoads          179                       # Number of loads that were rescheduled
system.cpu.iew.lsq.thread0.squashedLoads       324664                       # Number of loads squashed
system.cpu.iew.lsq.thread0.squashedStores       138833                       # Number of stores squashed
system.cpu.iew.memOrderViolationEvents            126                       # Number of memory order violations
system.cpu.iew.predictedNotTakenIncorrect       127295                       # Number of branches that were predicted not taken incorrectly
system.cpu.iew.predictedTakenIncorrect          10979                       # Number of branches that were predicted taken incorrectly
system.cpu.iew.wb_consumers                  23069115                       # num instructions consuming a value
system.cpu.iew.wb_count                      18960142                       # cumulative count of insts written-back
system.cpu.iew.wb_fanout                     0.599549                       # average fanout of values written-back
system.cpu.iew.wb_producers                  13831057                       # num instructions producing a value
system.cpu.iew.wb_rate                       1.956854                       # insts written-back per cycle
system.cpu.iew.wb_sent                       18988689                       # cumulative count of insts sent to commit
system.cpu.int_regfile_reads                 28830642                       # number of integer regfile reads
system.cpu.int_regfile_writes                15389170                       # number of integer regfile writes
system.cpu.ipc                               0.968548                       # IPC: Instructions Per Cycle
system.cpu.ipc_total                         0.968548                       # IPC: Total IPC of All Threads
system.cpu.iq.FU_type_0::No_OpClass             94480      0.49%      0.49% # Type of FU issued
system.cpu.iq.FU_type_0::IntAlu              14672306     76.57%     77.07% # Type of FU issued
system.cpu.iq.FU_type_0::IntMult               108387      0.57%     77.63% # Type of FU issued
system.cpu.iq.FU_type_0::IntDiv                 41491      0.22%     77.85% # Type of FU issued
system.cpu.iq.FU_type_0::FloatAdd               24236      0.13%     77.98% # Type of FU issued
system.cpu.iq.FU_type_0::FloatCmp                   0      0.00%     77.98% # Type of FU issued
system.cpu.iq.FU_type_0::FloatCvt                1292      0.01%     77.98% # Type of FU issued
system.cpu.iq.FU_type_0::FloatMult                  0      0.00%     77.98% # Type of FU issued
system.cpu.iq.FU_type_0::FloatMultAcc               0      0.00%     77.98% # Type of FU issued
system.cpu.iq.FU_type_0::FloatDiv                   0      0.00%     77.98% # Type of FU issued
system.cpu.iq.FU_type_0::FloatMisc                  0      0.00%     77.98% # Type of FU issued
system.cpu.iq.FU_type_0::FloatSqrt                  0      0.00%     77.98% # Type of FU issued
system.cpu.iq.FU_type_0::SimdAdd                 6864      0.04%     78.02% # Type of FU issued
system.cpu.iq.FU_type_0::SimdAddAcc                 0      0.00%     78.02% # Type of FU issued
system.cpu.iq.FU_type_0::SimdAlu                94702      0.49%     78.51% # Type of FU issued
system.cpu.iq.FU_type_0::SimdCmp                    0      0.00%     78.51% # Type of FU issued
system.cpu.iq.FU_type_0::SimdCvt                93853      0.49%     79.00% # Type of FU issued
system.cpu.iq.FU_type_0::SimdMisc              187119      0.98%     79.98% # Type of FU issued
system.cpu.iq.FU_type_0::SimdMult                   0      0.00%     79.98% # Type of FU issued
system.cpu.iq.FU_type_0::SimdMultAcc                0      0.00%     79.98% # Type of FU issued
system.cpu.iq.FU_type_0::SimdShift               2133      0.01%     79.99% # Type of FU issued
system.cpu.iq.FU_type_0::SimdShiftAcc               0      0.00%     79.99% # Type of FU issued
system.cpu.iq.FU_type_0::SimdDiv                    0      0.00%     79.99% # Type of FU issued
system.cpu.iq.FU_type_0::SimdSqrt                   0      0.00%     79.99% # Type of FU issued
system.cpu.iq.FU_type_0::SimdFloatAdd               0      0.00%     79.99% # Type of FU issued
system.cpu.iq.FU_type_0::SimdFloatAlu               0      0.00%     79.99% # Type of FU issued
system.cpu.iq.FU_type_0::SimdFloatCmp               0      0.00%     79.99% # Type of FU issued
system.cpu.iq.FU_type_0::SimdFloatCvt               0      0.00%     79.99% # Type of FU issued
system.cpu.iq.FU_type_0::SimdFloatDiv               0      0.00%     79.99% # Type of FU issued
system.cpu.iq.FU_type_0::SimdFloatMisc              0      0.00%     79.99% # Type of FU issued
system.cpu.iq.FU_type_0::SimdFloatMult              0      0.00%     79.99% # Type of FU issued
system.cpu.iq.FU_type_0::SimdFloatMultAcc            0      0.00%     79.99% # Type of FU issued
system.cpu.iq.FU_type_0::SimdFloatSqrt              0      0.00%     79.99% # Type of FU issued
system.cpu.iq.FU_type_0::SimdReduceAdd              0      0.00%     79.99% # Type of FU issued
system.cpu.iq.FU_type_0::SimdReduceAlu              0      0.00%     79.99% # Type of FU issued
system.cpu.iq.FU_type_0::SimdReduceCmp              0      0.00%     79.99% # Type of FU issued
system.cpu.iq.FU_type_0::SimdFloatReduceAdd            0      0.00%     79.99% # Type of FU issued
system.cpu.iq.FU_type_0::SimdFloatReduceCmp            0      0.00%     79.99% # Type of FU issued
system.cpu.iq.FU_type_0::SimdAes                    0      0.00%     79.99% # Type of FU issued
system.cpu.iq.FU_type_0::SimdAesMix                 0      0.00%     79.99% # Type of FU issued
system.cpu.iq.FU_type_0::SimdSha1Hash               0      0.00%     79.99% # Type of FU issued
system.cpu.iq.FU_type_0::SimdSha1Hash2              0      0.00%     79.99% # Type of FU issued
system.cpu.iq.FU_type_0::SimdSha256Hash             0      0.00%     79.99% # Type of FU issued
system.cpu.iq.FU_type_0::SimdSha256Hash2            0      0.00%     79.99% # Type of FU issued
system.cpu.iq.FU_type_0::SimdShaSigma2              0      0.00%     79.99% # Type of FU issued
system.cpu.iq.FU_type_0::SimdShaSigma3              0      0.00%     79.99% # Type of FU issued
system.cpu.iq.FU_type_0::SimdPredAlu                0      0.00%     79.99% # Type of FU issued
system.cpu.iq.FU_type_0::MemRead              2360397     12.32%     92.31% # Type of FU issued
system.cpu.iq.FU_type_0::MemWrite             1355171      7.07%     99.38% # Type of FU issued
system.cpu.iq.FU_type_0::FloatMemRead           85078      0.44%     99.83% # Type of FU issued
system.cpu.iq.FU_type_0::FloatMemWrite          33502      0.17%    100.00% # Type of FU issued
system.cpu.iq.FU_type_0::IprAccess                  0      0.00%    100.00% # Type of FU issued
system.cpu.iq.FU_type_0::InstPrefetch               0      0.00%    100.00% # Type of FU issued
system.cpu.iq.FU_type_0::total               19161011                       # Type of FU issued
system.cpu.iq.fp_alu_accesses                  589745                       # Number of floating point alu accesses
system.cpu.iq.fp_inst_queue_reads             1180692                       # Number of floating instruction queue reads
system.cpu.iq.fp_inst_queue_wakeup_accesses       586309                       # Number of floating instruction queue wakeup accesses
system.cpu.iq.fp_inst_queue_writes             628522                       # Number of floating instruction queue writes
system.cpu.iq.fu_busy_cnt                           0                       # FU busy when requested
system.cpu.iq.fu_busy_rate                          0                       # FU busy rate (busy events/executed inst)
system.cpu.iq.fu_full::No_OpClass                   0                       # attempts to use FU when none available
system.cpu.iq.fu_full::IntAlu                       0                       # attempts to use FU when none available
system.cpu.iq.fu_full::IntMult                      0                       # attempts to use FU when none available
system.cpu.iq.fu_full::IntDiv                       0                       # attempts to use FU when none available
system.cpu.iq.fu_full::FloatAdd                     0                       # attempts to use FU when none available
system.cpu.iq.fu_full::FloatCmp                     0                       # attempts to use FU when none available
system.cpu.iq.fu_full::FloatCvt                     0                       # attempts to use FU when none available
system.cpu.iq.fu_full::FloatMult                    0                       # attempts to use FU when none available
system.cpu.iq.fu_full::FloatMultAcc                 0                       # attempts to use FU when none available
system.cpu.iq.fu_full::FloatDiv                     0                       # attempts to use FU when none available
system.cpu.iq.fu_full::FloatMisc                    0                       # attempts to use FU when none available
system.cpu.iq.fu_full::FloatSqrt                    0                       # attempts to use FU when none available
system.cpu.iq.fu_full::SimdAdd                      0                       # attempts to use FU when none available
system.cpu.iq.fu_full::SimdAddAcc                   0                       # attempts to use FU when none available
system.cpu.iq.fu_full::SimdAlu                      0                       # attempts to use FU when none available
system.cpu.iq.fu_full::SimdCmp                      0                       # attempts to use FU when none available
system.cpu.iq.fu_full::SimdCvt                      0                       # attempts to use FU when none available
system.cpu.iq.fu_full::SimdMisc                     0                       # attempts to use FU when none available
system.cpu.iq.fu_full::SimdMult                     0                       # attempts to use FU when none available
system.cpu.iq.fu_full::SimdMultAcc                  0                       # attempts to use FU when none available
system.cpu.iq.fu_full::SimdShift                    0                       # attempts to use FU when none available
system.cpu.iq.fu_full::SimdShiftAcc                 0                       # attempts to use FU when none available
system.cpu.iq.fu_full::SimdDiv                      0                       # attempts to use FU when none available
system.cpu.iq.fu_full::SimdSqrt                     0                       # attempts to use FU when none available
system.cpu.iq.fu_full::SimdFloatAdd                 0                       # attempts to use FU when none available
system.cpu.iq.fu_full::SimdFloatAlu                 0                       # attempts to use FU when none available
system.cpu.iq.fu_full::SimdFloatCmp                 0                       # attempts to use FU when none available
system.cpu.iq.fu_full::SimdFloatCvt                 0                       # attempts to use FU when none available
system.cpu.iq.fu_full::SimdFloatDiv                 0                       # attempts to use FU when none available
system.cpu.iq.fu_full::SimdFloatMisc                0                       # attempts to use FU when none available
system.cpu.iq.fu_full::SimdFloatMult                0                       # attempts to use FU when none available
system.cpu.iq.fu_full::SimdFloatMultAcc             0                       # attempts to use FU when none available
system.cpu.iq.fu_full::SimdFloatSqrt                0                       # attempts to use FU when none available
system.cpu.iq.fu_full::SimdReduceAdd                0                       # attempts to use FU when none available
system.cpu.iq.fu_full::SimdReduceAlu                0                       # attempts to use FU when none available
system.cpu.iq.fu_full::SimdReduceCmp                0                       # attempts to use FU when none available
system.cpu.iq.fu_full::SimdFloatReduceAdd            0                       # attempts to use FU when none available
system.cpu.iq.fu_full::SimdFloatReduceCmp            0                       # attempts to use FU when none available
system.cpu.iq.fu_full::SimdAes                      0                       # attempts to use FU when none available
system.cpu.iq.fu_full::SimdAesMix                   0                       # attempts to use FU when none available
system.cpu.iq.fu_full::SimdSha1Hash                 0                       # attempts to use FU when none available
system.cpu.iq.fu_full::SimdSha1Hash2                0                       # attempts to use FU when none available
system.cpu.iq.fu_full::SimdSha256Hash               0                       # attempts to use FU when none available
system.cpu.iq.fu_full::SimdSha256Hash2              0                       # attempts to use FU when none available
system.cpu.iq.fu_full::SimdShaSigma2                0                       # attempts to use FU when none available
system.cpu.iq.fu_full::SimdShaSigma3                0                       # attempts to use FU when none available
system.cpu.iq.fu_full::SimdPredAlu                  0                       # attempts to use FU when none available
system.cpu.iq.fu_full::MemRead                      0                       # attempts to use FU when none available
system.cpu.iq.fu_full::MemWrite                     0                       # attempts to use FU when none available
system.cpu.iq.fu_full::FloatMemRead                 0                       # attempts to use FU when none available
system.cpu.iq.fu_full::FloatMemWrite                0                       # attempts to use FU when none available
system.cpu.iq.fu_full::IprAccess                    0                       # attempts to use FU when none available
system.cpu.iq.fu_full::InstPrefetch                 0                       # attempts to use FU when none available
system.cpu.iq.int_alu_accesses               18476786                       # Number of integer alu accesses
system.cpu.iq.int_inst_queue_reads           46738653                       # Number of integer instruction queue reads
system.cpu.iq.int_inst_queue_wakeup_accesses     18373833                       # Number of integer instruction queue wakeup accesses
system.cpu.iq.int_inst_queue_writes          21548974                       # Number of integer instruction queue writes
system.cpu.iq.iqInstsAdded                   19941939                       # Number of instructions added to the IQ (excludes non-spec)
system.cpu.iq.iqInstsIssued                  19161011                       # Number of instructions issued
system.cpu.iq.iqNonSpecInstsAdded                1176                       # Number of non-speculative instructions added to the IQ
system.cpu.iq.iqSquashedInstsExamined         2234256                       # Number of squashed instructions iterated over during squash; mainly for profiling
system.cpu.iq.iqSquashedInstsIssued            116304                       # Number of squashed instructions issued
system.cpu.iq.iqSquashedNonSpecRemoved            412                       # Number of squashed non-spec instructions that were removed
system.cpu.iq.iqSquashedOperandsExamined      3244975                       # Number of squashed operands that are examined and possibly removed from graph
system.cpu.iq.issued_per_cycle::samples       9481022                       # Number of insts issued each cycle
system.cpu.iq.issued_per_cycle::mean         2.020986                       # Number of insts issued each cycle
system.cpu.iq.issued_per_cycle::stdev        1.569561                       # Number of insts issued each cycle
system.cpu.iq.issued_per_cycle::underflows            0      0.00%      0.00% # Number of insts issued each cycle
system.cpu.iq.issued_per_cycle::0             2684497     28.31%     28.31% # Number of insts issued each cycle
system.cpu.iq.issued_per_cycle::1             1082641     11.42%     39.73% # Number of insts issued each cycle
system.cpu.iq.issued_per_cycle::2             1508112     15.91%     55.64% # Number of insts issued each cycle
system.cpu.iq.issued_per_cycle::3             1760942     18.57%     74.21% # Number of insts issued each cycle
system.cpu.iq.issued_per_cycle::4             2444830     25.79%    100.00% # Number of insts issued each cycle
system.cpu.iq.issued_per_cycle::overflows            0      0.00%    100.00% # Number of insts issued each cycle
system.cpu.iq.issued_per_cycle::min_value            0                       # Number of insts issued each cycle
system.cpu.iq.issued_per_cycle::max_value            4                       # Number of insts issued each cycle
system.cpu.iq.issued_per_cycle::total         9481022                       # Number of insts issued each cycle
system.cpu.iq.rate                           1.977585                       # Inst issue rate
system.cpu.iq.vec_alu_accesses                      0                       # Number of vector alu accesses
system.cpu.iq.vec_inst_queue_reads                  0                       # Number of vector instruction queue reads
system.cpu.iq.vec_inst_queue_wakeup_accesses            0                       # Number of vector instruction queue wakeup accesses
system.cpu.iq.vec_inst_queue_writes                 0                       # Number of vector instruction queue writes
system.cpu.itb.rdAccesses                           0                       # TLB accesses on read requests
system.cpu.itb.rdMisses                             0                       # TLB misses on read requests
system.cpu.itb.wrAccesses                     1569690                       # TLB accesses on write requests
system.cpu.itb.wrMisses                           413                       # TLB misses on write requests
system.cpu.memDep0.conflictingLoads            100254                       # Number of conflicting loads.
system.cpu.memDep0.conflictingStores            34064                       # Number of conflicting stores.
system.cpu.memDep0.insertedLoads              2519787                       # Number of loads inserted to the mem dependence unit.
system.cpu.memDep0.insertedStores             1455600                       # Number of stores inserted to the mem dependence unit.
system.cpu.misc_regfile_reads                 7680980                       # number of misc regfile reads
system.cpu.misc_regfile_writes                    693                       # number of misc regfile writes
system.cpu.numCycles                          9689096                       # number of cpu cycles simulated
system.cpu.numWorkItemsCompleted                    0                       # number of work items this cpu completed
system.cpu.numWorkItemsStarted                      0                       # number of work items this cpu started
system.cpu.process.numSyscalls                     70                       # Number of system calls
system.cpu.rename.BlockCycles                 1184146                       # Number of cycles rename is blocking
system.cpu.rename.CommittedMaps              21303854                       # Number of HB maps that are committed
system.cpu.rename.FullRegisterEvents               55                       # Number of times there has been no free registers
system.cpu.rename.IQFullEvents                 124347                       # Number of times rename has blocked due to IQ full
system.cpu.rename.IdleCycles                  2333491                       # Number of cycles rename is idle
system.cpu.rename.LQFullEvents                  15753                       # Number of times rename has blocked due to LQ full
system.cpu.rename.ROBFullEvents                  5234                       # Number of times rename has blocked due to ROB full
system.cpu.rename.RenameLookups              52439883                       # Number of register rename lookups that rename has made
system.cpu.rename.RenamedInsts               20495749                       # Number of instructions processed by rename
system.cpu.rename.RenamedOperands            24581334                       # Number of destination operands rename has renamed
system.cpu.rename.RunCycles                   5552336                       # Number of cycles rename is running
system.cpu.rename.SQFullEvents                  77372                       # Number of times rename has blocked due to SQ full
system.cpu.rename.SquashCycles                 104681                       # Number of cycles rename is squashing
system.cpu.rename.UnblockCycles                287181                       # Number of cycles rename is unblocking
system.cpu.rename.UndoneMaps                  3277457                       # Number of HB maps that are undone due to squashing
system.cpu.rename.fp_rename_lookups            992453                       # Number of floating rename lookups
system.cpu.rename.int_rename_lookups         31340164                       # Number of integer rename lookups
system.cpu.rename.serializeStallCycles          19187                       # count of cycles rename stalled for serializing inst
system.cpu.rename.serializingInsts                899                       # count of serializing insts renamed
system.cpu.rename.skidInsts                    459827                       # count of insts added to the skid buffer
system.cpu.rename.tempSerializingInsts            950                       # count of temporary serializing insts renamed
system.cpu.rob.rob_reads                     25999415                       # The number of ROB reads
system.cpu.rob.rob_writes                    40535000                       # The number of ROB writes
system.cpu.timesIdled                           23565                       # Number of times that the entire CPU went into an idle state and unscheduled itself
system.l2bus.snoop_filter.hit_multi_requests           12                       # Number of requests hitting in the snoop filter with multiple (>1) holders of the requested data.
system.l2bus.snoop_filter.hit_multi_snoops            0                       # Number of snoops hitting in the snoop filter with multiple (>1) holders of the requested data.
system.l2bus.snoop_filter.hit_single_requests        49863                       # Number of requests hitting in the snoop filter with a single holder of the requested data.
system.l2bus.snoop_filter.hit_single_snoops          478                       # Number of snoops hitting in the snoop filter with a single holder of the requested data.
system.l2bus.snoop_filter.tot_requests         101006                       # Total number of requests made to the snoop filter.
system.l2bus.snoop_filter.tot_snoops              478                       # Total number of snoops made to the snoop filter.
system.l2cache.prefetcher.num_hwpf_issued          854                       # number of hwpf issued
system.l2cache.prefetcher.pfBufferHit               0                       # number of redundant prefetches already in prefetch queue
system.l2cache.prefetcher.pfIdentified            854                       # number of prefetch candidates identified
system.l2cache.prefetcher.pfInCache                 0                       # number of redundant prefetches already in cache/mshr dropped
system.l2cache.prefetcher.pfRemovedFull             0                       # number of prefetches dropped due to prefetch queue size
system.l2cache.prefetcher.pfSpanPage              150                       # number of prefetches that crossed the page
system.membus.snoop_filter.hit_multi_requests            0                       # Number of requests hitting in the snoop filter with multiple (>1) holders of the requested data.
system.membus.snoop_filter.hit_multi_snoops            0                       # Number of snoops hitting in the snoop filter with multiple (>1) holders of the requested data.
system.membus.snoop_filter.hit_single_requests        10182                       # Number of requests hitting in the snoop filter with a single holder of the requested data.
system.membus.snoop_filter.hit_single_snoops            0                       # Number of snoops hitting in the snoop filter with a single holder of the requested data.
system.membus.snoop_filter.tot_requests         24489                       # Total number of requests made to the snoop filter.
system.membus.snoop_filter.tot_snoops               0                       # Total number of snoops made to the snoop filter.
system.membus.pwrStateResidencyTicks::UNDEFINED   3875638000                       # Cumulative time (in ticks) in various power states
system.membus.trans_dist::ReadResp              12598                       # Transaction distribution
system.membus.trans_dist::WritebackDirty         1393                       # Transaction distribution
system.membus.trans_dist::CleanEvict             8789                       # Transaction distribution
system.membus.trans_dist::ReadExReq              1709                       # Transaction distribution
system.membus.trans_dist::ReadExResp             1709                       # Transaction distribution
system.membus.trans_dist::ReadSharedReq         12598                       # Transaction distribution
system.membus.pkt_count_system.l2cache.mem_side::system.mem_ctrl.port        38796                       # Packet count per connected master and slave (bytes)
system.membus.pkt_count_system.l2cache.mem_side::total        38796                       # Packet count per connected master and slave (bytes)
system.membus.pkt_count::total                  38796                       # Packet count per connected master and slave (bytes)
system.membus.pkt_size_system.l2cache.mem_side::system.mem_ctrl.port      1004800                       # Cumulative packet size per connected master and slave (bytes)
system.membus.pkt_size_system.l2cache.mem_side::total      1004800                       # Cumulative packet size per connected master and slave (bytes)
system.membus.pkt_size::total                 1004800                       # Cumulative packet size per connected master and slave (bytes)
system.membus.snoops                                0                       # Total snoops (count)
system.membus.snoopTraffic                          0                       # Total snoop traffic (bytes)
system.membus.snoop_fanout::samples             14307                       # Request fanout histogram
system.membus.snoop_fanout::mean                    0                       # Request fanout histogram
system.membus.snoop_fanout::stdev                   0                       # Request fanout histogram
system.membus.snoop_fanout::underflows              0      0.00%      0.00% # Request fanout histogram
system.membus.snoop_fanout::0                   14307    100.00%    100.00% # Request fanout histogram
system.membus.snoop_fanout::1                       0      0.00%    100.00% # Request fanout histogram
system.membus.snoop_fanout::overflows               0      0.00%    100.00% # Request fanout histogram
system.membus.snoop_fanout::min_value               0                       # Request fanout histogram
system.membus.snoop_fanout::max_value               0                       # Request fanout histogram
system.membus.snoop_fanout::total               14307                       # Request fanout histogram
system.membus.reqLayer2.occupancy            12063392                       # Layer occupancy (ticks)
system.membus.reqLayer2.utilization               0.3                       # Layer utilization (%)
system.membus.respLayer0.occupancy           31060808                       # Layer occupancy (ticks)
system.membus.respLayer0.utilization              0.8                       # Layer utilization (%)
system.l2bus.pwrStateResidencyTicks::UNDEFINED   3875638000                       # Cumulative time (in ticks) in various power states
system.l2bus.trans_dist::ReadResp               48697                       # Transaction distribution
system.l2bus.trans_dist::WritebackDirty          4616                       # Transaction distribution
system.l2bus.trans_dist::CleanEvict             55536                       # Transaction distribution
system.l2bus.trans_dist::HardPFReq               1171                       # Transaction distribution
system.l2bus.trans_dist::ReadExReq               2446                       # Transaction distribution
system.l2bus.trans_dist::ReadExResp              2446                       # Transaction distribution
system.l2bus.trans_dist::ReadSharedReq          48697                       # Transaction distribution
system.l2bus.pkt_count_system.cpu.icache.mem_side::system.l2cache.cpu_side        99402                       # Packet count per connected master and slave (bytes)
system.l2bus.pkt_count_system.cpu.dcache.mem_side::system.l2cache.cpu_side        52742                       # Packet count per connected master and slave (bytes)
system.l2bus.pkt_count::total                  152144                       # Packet count per connected master and slave (bytes)
system.l2bus.pkt_size_system.cpu.icache.mem_side::system.l2cache.cpu_side      2126144                       # Cumulative packet size per connected master and slave (bytes)
system.l2bus.pkt_size_system.cpu.dcache.mem_side::system.l2cache.cpu_side      1352960                       # Cumulative packet size per connected master and slave (bytes)
system.l2bus.pkt_size::total                  3479104                       # Cumulative packet size per connected master and slave (bytes)
system.l2bus.snoops                             11465                       # Total snoops (count)
system.l2bus.snoopTraffic                       89472                       # Total snoop traffic (bytes)
system.l2bus.snoop_fanout::samples              62603                       # Request fanout histogram
system.l2bus.snoop_fanout::mean              0.007827                       # Request fanout histogram
system.l2bus.snoop_fanout::stdev             0.088125                       # Request fanout histogram
system.l2bus.snoop_fanout::underflows               0      0.00%      0.00% # Request fanout histogram
system.l2bus.snoop_fanout::0                    62113     99.22%     99.22% # Request fanout histogram
system.l2bus.snoop_fanout::1                      490      0.78%    100.00% # Request fanout histogram
system.l2bus.snoop_fanout::2                        0      0.00%    100.00% # Request fanout histogram
system.l2bus.snoop_fanout::overflows                0      0.00%    100.00% # Request fanout histogram
system.l2bus.snoop_fanout::min_value                0                       # Request fanout histogram
system.l2bus.snoop_fanout::max_value                1                       # Request fanout histogram
system.l2bus.snoop_fanout::total                62603                       # Request fanout histogram
system.l2bus.respLayer1.occupancy            21512787                       # Layer occupancy (ticks)
system.l2bus.respLayer1.utilization               0.6                       # Layer utilization (%)
system.l2bus.reqLayer0.occupancy             44511215                       # Layer occupancy (ticks)
system.l2bus.reqLayer0.utilization                1.1                       # Layer utilization (%)
system.l2bus.respLayer0.occupancy            39864399                       # Layer occupancy (ticks)
system.l2bus.respLayer0.utilization               1.0                       # Layer utilization (%)
system.clk_domain.clock                           400                       # Clock period in ticks
system.clk_domain.voltage_domain.voltage            1                       # Voltage in Volts
system.cpu.pwrStateResidencyTicks::ON      3875638000                       # Cumulative time (in ticks) in various power states
system.cpu.icache.pwrStateResidencyTicks::UNDEFINED   3875638000                       # Cumulative time (in ticks) in various power states
system.cpu.icache.demand_hits::.cpu.inst      1535491                       # number of demand (read+write) hits
system.cpu.icache.demand_hits::total          1535491                       # number of demand (read+write) hits
system.cpu.icache.overall_hits::.cpu.inst      1535491                       # number of overall hits
system.cpu.icache.overall_hits::total         1535491                       # number of overall hits
system.cpu.icache.demand_misses::.cpu.inst        34038                       # number of demand (read+write) misses
system.cpu.icache.demand_misses::total          34038                       # number of demand (read+write) misses
system.cpu.icache.overall_misses::.cpu.inst        34038                       # number of overall misses
system.cpu.icache.overall_misses::total         34038                       # number of overall misses
system.cpu.icache.demand_miss_latency::.cpu.inst    495164400                       # number of demand (read+write) miss cycles
system.cpu.icache.demand_miss_latency::total    495164400                       # number of demand (read+write) miss cycles
system.cpu.icache.overall_miss_latency::.cpu.inst    495164400                       # number of overall miss cycles
system.cpu.icache.overall_miss_latency::total    495164400                       # number of overall miss cycles
system.cpu.icache.demand_accesses::.cpu.inst      1569529                       # number of demand (read+write) accesses
system.cpu.icache.demand_accesses::total      1569529                       # number of demand (read+write) accesses
system.cpu.icache.overall_accesses::.cpu.inst      1569529                       # number of overall (read+write) accesses
system.cpu.icache.overall_accesses::total      1569529                       # number of overall (read+write) accesses
system.cpu.icache.demand_miss_rate::.cpu.inst     0.021687                       # miss rate for demand accesses
system.cpu.icache.demand_miss_rate::total     0.021687                       # miss rate for demand accesses
system.cpu.icache.overall_miss_rate::.cpu.inst     0.021687                       # miss rate for overall accesses
system.cpu.icache.overall_miss_rate::total     0.021687                       # miss rate for overall accesses
system.cpu.icache.demand_avg_miss_latency::.cpu.inst 14547.399965                       # average overall miss latency
system.cpu.icache.demand_avg_miss_latency::total 14547.399965                       # average overall miss latency
system.cpu.icache.overall_avg_miss_latency::.cpu.inst 14547.399965                       # average overall miss latency
system.cpu.icache.overall_avg_miss_latency::total 14547.399965                       # average overall miss latency
system.cpu.icache.blocked_cycles::no_mshrs          181                       # number of cycles access was blocked
system.cpu.icache.blocked_cycles::no_targets            0                       # number of cycles access was blocked
system.cpu.icache.blocked::no_mshrs                 6                       # number of cycles access was blocked
system.cpu.icache.blocked::no_targets               0                       # number of cycles access was blocked
system.cpu.icache.avg_blocked_cycles::no_mshrs    30.166667                       # average number of cycles each access was blocked
system.cpu.icache.avg_blocked_cycles::no_targets          nan                       # average number of cycles each access was blocked
system.cpu.icache.writebacks::.writebacks            3                       # number of writebacks
system.cpu.icache.writebacks::total                 3                       # number of writebacks
system.cpu.icache.demand_mshr_hits::.cpu.inst          818                       # number of demand (read+write) MSHR hits
system.cpu.icache.demand_mshr_hits::total          818                       # number of demand (read+write) MSHR hits
system.cpu.icache.overall_mshr_hits::.cpu.inst          818                       # number of overall MSHR hits
system.cpu.icache.overall_mshr_hits::total          818                       # number of overall MSHR hits
system.cpu.icache.demand_mshr_misses::.cpu.inst        33220                       # number of demand (read+write) MSHR misses
system.cpu.icache.demand_mshr_misses::total        33220                       # number of demand (read+write) MSHR misses
system.cpu.icache.overall_mshr_misses::.cpu.inst        33220                       # number of overall MSHR misses
system.cpu.icache.overall_mshr_misses::total        33220                       # number of overall MSHR misses
system.cpu.icache.demand_mshr_miss_latency::.cpu.inst    435597600                       # number of demand (read+write) MSHR miss cycles
system.cpu.icache.demand_mshr_miss_latency::total    435597600                       # number of demand (read+write) MSHR miss cycles
system.cpu.icache.overall_mshr_miss_latency::.cpu.inst    435597600                       # number of overall MSHR miss cycles
system.cpu.icache.overall_mshr_miss_latency::total    435597600                       # number of overall MSHR miss cycles
system.cpu.icache.demand_mshr_miss_rate::.cpu.inst     0.021166                       # mshr miss rate for demand accesses
system.cpu.icache.demand_mshr_miss_rate::total     0.021166                       # mshr miss rate for demand accesses
system.cpu.icache.overall_mshr_miss_rate::.cpu.inst     0.021166                       # mshr miss rate for overall accesses
system.cpu.icache.overall_mshr_miss_rate::total     0.021166                       # mshr miss rate for overall accesses
system.cpu.icache.demand_avg_mshr_miss_latency::.cpu.inst 13112.510536                       # average overall mshr miss latency
system.cpu.icache.demand_avg_mshr_miss_latency::total 13112.510536                       # average overall mshr miss latency
system.cpu.icache.overall_avg_mshr_miss_latency::.cpu.inst 13112.510536                       # average overall mshr miss latency
system.cpu.icache.overall_avg_mshr_miss_latency::total 13112.510536                       # average overall mshr miss latency
system.cpu.icache.replacements                  32964                       # number of replacements
system.cpu.icache.ReadReq_hits::.cpu.inst      1535491                       # number of ReadReq hits
system.cpu.icache.ReadReq_hits::total         1535491                       # number of ReadReq hits
system.cpu.icache.ReadReq_misses::.cpu.inst        34038                       # number of ReadReq misses
system.cpu.icache.ReadReq_misses::total         34038                       # number of ReadReq misses
system.cpu.icache.ReadReq_miss_latency::.cpu.inst    495164400                       # number of ReadReq miss cycles
system.cpu.icache.ReadReq_miss_latency::total    495164400                       # number of ReadReq miss cycles
system.cpu.icache.ReadReq_accesses::.cpu.inst      1569529                       # number of ReadReq accesses(hits+misses)
system.cpu.icache.ReadReq_accesses::total      1569529                       # number of ReadReq accesses(hits+misses)
system.cpu.icache.ReadReq_miss_rate::.cpu.inst     0.021687                       # miss rate for ReadReq accesses
system.cpu.icache.ReadReq_miss_rate::total     0.021687                       # miss rate for ReadReq accesses
system.cpu.icache.ReadReq_avg_miss_latency::.cpu.inst 14547.399965                       # average ReadReq miss latency
system.cpu.icache.ReadReq_avg_miss_latency::total 14547.399965                       # average ReadReq miss latency
system.cpu.icache.ReadReq_mshr_hits::.cpu.inst          818                       # number of ReadReq MSHR hits
system.cpu.icache.ReadReq_mshr_hits::total          818                       # number of ReadReq MSHR hits
system.cpu.icache.ReadReq_mshr_misses::.cpu.inst        33220                       # number of ReadReq MSHR misses
system.cpu.icache.ReadReq_mshr_misses::total        33220                       # number of ReadReq MSHR misses
system.cpu.icache.ReadReq_mshr_miss_latency::.cpu.inst    435597600                       # number of ReadReq MSHR miss cycles
system.cpu.icache.ReadReq_mshr_miss_latency::total    435597600                       # number of ReadReq MSHR miss cycles
system.cpu.icache.ReadReq_mshr_miss_rate::.cpu.inst     0.021166                       # mshr miss rate for ReadReq accesses
system.cpu.icache.ReadReq_mshr_miss_rate::total     0.021166                       # mshr miss rate for ReadReq accesses
system.cpu.icache.ReadReq_avg_mshr_miss_latency::.cpu.inst 13112.510536                       # average ReadReq mshr miss latency
system.cpu.icache.ReadReq_avg_mshr_miss_latency::total 13112.510536                       # average ReadReq mshr miss latency
system.cpu.icache.prefetcher.pwrStateResidencyTicks::UNDEFINED   3875638000                       # Cumulative time (in ticks) in various power states
system.cpu.icache.tags.pwrStateResidencyTicks::UNDEFINED   3875638000                       # Cumulative time (in ticks) in various power states
system.cpu.icache.tags.tagsinuse           255.282844                       # Cycle average of tags in use
system.cpu.icache.tags.total_refs              872242                       # Total number of references to valid blocks.
system.cpu.icache.tags.sampled_refs             32964                       # Sample count of references to valid blocks.
system.cpu.icache.tags.avg_refs             26.460442                       # Average number of references to valid blocks.
system.cpu.icache.tags.warmup_cycle             66400                       # Cycle when the warmup percentage was hit.
system.cpu.icache.tags.occ_blocks::.cpu.inst   255.282844                       # Average occupied blocks per requestor
system.cpu.icache.tags.occ_percent::.cpu.inst     0.997199                       # Average percentage of cache occupancy
system.cpu.icache.tags.occ_percent::total     0.997199                       # Average percentage of cache occupancy
system.cpu.icache.tags.occ_task_id_blocks::1024          256                       # Occupied blocks per task id
system.cpu.icache.tags.age_task_id_blocks_1024::0           85                       # Occupied blocks per task id
system.cpu.icache.tags.age_task_id_blocks_1024::3          171                       # Occupied blocks per task id
system.cpu.icache.tags.occ_task_id_percent::1024            1                       # Percentage of cache occupancy per task id
system.cpu.icache.tags.tag_accesses           3172278                       # Number of tag accesses
system.cpu.icache.tags.data_accesses          3172278                       # Number of data accesses
system.cpu.dtb.walker.pwrStateResidencyTicks::UNDEFINED   3875638000                       # Cumulative time (in ticks) in various power states
system.cpu.interrupts.clk_domain.clock           6400                       # Clock period in ticks
system.cpu.itb.walker.pwrStateResidencyTicks::UNDEFINED   3875638000                       # Cumulative time (in ticks) in various power states
system.cpu.dcache.pwrStateResidencyTicks::UNDEFINED   3875638000                       # Cumulative time (in ticks) in various power states
system.cpu.dcache.demand_hits::.cpu.data      3511515                       # number of demand (read+write) hits
system.cpu.dcache.demand_hits::total          3511515                       # number of demand (read+write) hits
system.cpu.dcache.overall_hits::.cpu.data      3511515                       # number of overall hits
system.cpu.dcache.overall_hits::total         3511515                       # number of overall hits
system.cpu.dcache.demand_misses::.cpu.data        36089                       # number of demand (read+write) misses
system.cpu.dcache.demand_misses::total          36089                       # number of demand (read+write) misses
system.cpu.dcache.overall_misses::.cpu.data        36089                       # number of overall misses
system.cpu.dcache.overall_misses::total         36089                       # number of overall misses
system.cpu.dcache.demand_miss_latency::.cpu.data   1745717600                       # number of demand (read+write) miss cycles
system.cpu.dcache.demand_miss_latency::total   1745717600                       # number of demand (read+write) miss cycles
system.cpu.dcache.overall_miss_latency::.cpu.data   1745717600                       # number of overall miss cycles
system.cpu.dcache.overall_miss_latency::total   1745717600                       # number of overall miss cycles
system.cpu.dcache.demand_accesses::.cpu.data      3547604                       # number of demand (read+write) accesses
system.cpu.dcache.demand_accesses::total      3547604                       # number of demand (read+write) accesses
system.cpu.dcache.overall_accesses::.cpu.data      3547604                       # number of overall (read+write) accesses
system.cpu.dcache.overall_accesses::total      3547604                       # number of overall (read+write) accesses
system.cpu.dcache.demand_miss_rate::.cpu.data     0.010173                       # miss rate for demand accesses
system.cpu.dcache.demand_miss_rate::total     0.010173                       # miss rate for demand accesses
system.cpu.dcache.overall_miss_rate::.cpu.data     0.010173                       # miss rate for overall accesses
system.cpu.dcache.overall_miss_rate::total     0.010173                       # miss rate for overall accesses
system.cpu.dcache.demand_avg_miss_latency::.cpu.data 48372.567818                       # average overall miss latency
system.cpu.dcache.demand_avg_miss_latency::total 48372.567818                       # average overall miss latency
system.cpu.dcache.overall_avg_miss_latency::.cpu.data 48372.567818                       # average overall miss latency
system.cpu.dcache.overall_avg_miss_latency::total 48372.567818                       # average overall miss latency
system.cpu.dcache.blocked_cycles::no_mshrs        29228                       # number of cycles access was blocked
system.cpu.dcache.blocked_cycles::no_targets          156                       # number of cycles access was blocked
system.cpu.dcache.blocked::no_mshrs               743                       # number of cycles access was blocked
system.cpu.dcache.blocked::no_targets               2                       # number of cycles access was blocked
system.cpu.dcache.avg_blocked_cycles::no_mshrs    39.337820                       # average number of cycles each access was blocked
system.cpu.dcache.avg_blocked_cycles::no_targets           78                       # average number of cycles each access was blocked
system.cpu.dcache.unused_prefetches              1886                       # number of HardPF blocks evicted w/o reference
system.cpu.dcache.writebacks::.writebacks         3220                       # number of writebacks
system.cpu.dcache.writebacks::total              3220                       # number of writebacks
system.cpu.dcache.demand_mshr_hits::.cpu.data        22904                       # number of demand (read+write) MSHR hits
system.cpu.dcache.demand_mshr_hits::total        22904                       # number of demand (read+write) MSHR hits
system.cpu.dcache.overall_mshr_hits::.cpu.data        22904                       # number of overall MSHR hits
system.cpu.dcache.overall_mshr_hits::total        22904                       # number of overall MSHR hits
system.cpu.dcache.demand_mshr_misses::.cpu.data        13185                       # number of demand (read+write) MSHR misses
system.cpu.dcache.demand_mshr_misses::total        13185                       # number of demand (read+write) MSHR misses
system.cpu.dcache.overall_mshr_misses::.cpu.data        13185                       # number of overall MSHR misses
system.cpu.dcache.overall_mshr_misses::.cpu.dcache.prefetcher         4738                       # number of overall MSHR misses
system.cpu.dcache.overall_mshr_misses::total        17923                       # number of overall MSHR misses
system.cpu.dcache.demand_mshr_miss_latency::.cpu.data    612142800                       # number of demand (read+write) MSHR miss cycles
system.cpu.dcache.demand_mshr_miss_latency::total    612142800                       # number of demand (read+write) MSHR miss cycles
system.cpu.dcache.overall_mshr_miss_latency::.cpu.data    612142800                       # number of overall MSHR miss cycles
system.cpu.dcache.overall_mshr_miss_latency::.cpu.dcache.prefetcher    263461063                       # number of overall MSHR miss cycles
system.cpu.dcache.overall_mshr_miss_latency::total    875603863                       # number of overall MSHR miss cycles
system.cpu.dcache.demand_mshr_miss_rate::.cpu.data     0.003717                       # mshr miss rate for demand accesses
system.cpu.dcache.demand_mshr_miss_rate::total     0.003717                       # mshr miss rate for demand accesses
system.cpu.dcache.overall_mshr_miss_rate::.cpu.data     0.003717                       # mshr miss rate for overall accesses
system.cpu.dcache.overall_mshr_miss_rate::.cpu.dcache.prefetcher          inf                       # mshr miss rate for overall accesses
system.cpu.dcache.overall_mshr_miss_rate::total     0.005052                       # mshr miss rate for overall accesses
system.cpu.dcache.demand_avg_mshr_miss_latency::.cpu.data 46427.212742                       # average overall mshr miss latency
system.cpu.dcache.demand_avg_mshr_miss_latency::total 46427.212742                       # average overall mshr miss latency
system.cpu.dcache.overall_avg_mshr_miss_latency::.cpu.data 46427.212742                       # average overall mshr miss latency
system.cpu.dcache.overall_avg_mshr_miss_latency::.cpu.dcache.prefetcher 55605.965175                       # average overall mshr miss latency
system.cpu.dcache.overall_avg_mshr_miss_latency::total 48853.644089                       # average overall mshr miss latency
system.cpu.dcache.replacements                  16899                       # number of replacements
system.cpu.dcache.ReadReq_hits::.cpu.data      2194949                       # number of ReadReq hits
system.cpu.dcache.ReadReq_hits::total         2194949                       # number of ReadReq hits
system.cpu.dcache.ReadReq_misses::.cpu.data        33594                       # number of ReadReq misses
system.cpu.dcache.ReadReq_misses::total         33594                       # number of ReadReq misses
system.cpu.dcache.ReadReq_miss_latency::.cpu.data   1614376400                       # number of ReadReq miss cycles
system.cpu.dcache.ReadReq_miss_latency::total   1614376400                       # number of ReadReq miss cycles
system.cpu.dcache.ReadReq_accesses::.cpu.data      2228543                       # number of ReadReq accesses(hits+misses)
system.cpu.dcache.ReadReq_accesses::total      2228543                       # number of ReadReq accesses(hits+misses)
system.cpu.dcache.ReadReq_miss_rate::.cpu.data     0.015074                       # miss rate for ReadReq accesses
system.cpu.dcache.ReadReq_miss_rate::total     0.015074                       # miss rate for ReadReq accesses
system.cpu.dcache.ReadReq_avg_miss_latency::.cpu.data 48055.498006                       # average ReadReq miss latency
system.cpu.dcache.ReadReq_avg_miss_latency::total 48055.498006                       # average ReadReq miss latency
system.cpu.dcache.ReadReq_mshr_hits::.cpu.data        22854                       # number of ReadReq MSHR hits
system.cpu.dcache.ReadReq_mshr_hits::total        22854                       # number of ReadReq MSHR hits
system.cpu.dcache.ReadReq_mshr_misses::.cpu.data        10740                       # number of ReadReq MSHR misses
system.cpu.dcache.ReadReq_mshr_misses::total        10740                       # number of ReadReq MSHR misses
system.cpu.dcache.ReadReq_mshr_miss_latency::.cpu.data    484684000                       # number of ReadReq MSHR miss cycles
system.cpu.dcache.ReadReq_mshr_miss_latency::total    484684000                       # number of ReadReq MSHR miss cycles
system.cpu.dcache.ReadReq_mshr_miss_rate::.cpu.data     0.004819                       # mshr miss rate for ReadReq accesses
system.cpu.dcache.ReadReq_mshr_miss_rate::total     0.004819                       # mshr miss rate for ReadReq accesses
system.cpu.dcache.ReadReq_avg_mshr_miss_latency::.cpu.data 45128.864060                       # average ReadReq mshr miss latency
system.cpu.dcache.ReadReq_avg_mshr_miss_latency::total 45128.864060                       # average ReadReq mshr miss latency
system.cpu.dcache.WriteReq_hits::.cpu.data      1316566                       # number of WriteReq hits
system.cpu.dcache.WriteReq_hits::total        1316566                       # number of WriteReq hits
system.cpu.dcache.WriteReq_misses::.cpu.data         2495                       # number of WriteReq misses
system.cpu.dcache.WriteReq_misses::total         2495                       # number of WriteReq misses
system.cpu.dcache.WriteReq_miss_latency::.cpu.data    131341200                       # number of WriteReq miss cycles
system.cpu.dcache.WriteReq_miss_latency::total    131341200                       # number of WriteReq miss cycles
system.cpu.dcache.WriteReq_accesses::.cpu.data      1319061                       # number of WriteReq accesses(hits+misses)
system.cpu.dcache.WriteReq_accesses::total      1319061                       # number of WriteReq accesses(hits+misses)
system.cpu.dcache.WriteReq_miss_rate::.cpu.data     0.001891                       # miss rate for WriteReq accesses
system.cpu.dcache.WriteReq_miss_rate::total     0.001891                       # miss rate for WriteReq accesses
system.cpu.dcache.WriteReq_avg_miss_latency::.cpu.data 52641.763527                       # average WriteReq miss latency
system.cpu.dcache.WriteReq_avg_miss_latency::total 52641.763527                       # average WriteReq miss latency
system.cpu.dcache.WriteReq_mshr_hits::.cpu.data           50                       # number of WriteReq MSHR hits
system.cpu.dcache.WriteReq_mshr_hits::total           50                       # number of WriteReq MSHR hits
system.cpu.dcache.WriteReq_mshr_misses::.cpu.data         2445                       # number of WriteReq MSHR misses
system.cpu.dcache.WriteReq_mshr_misses::total         2445                       # number of WriteReq MSHR misses
[...]
system.l2cache.writebacks::total                   37                       # number of writebacks
system.l2cache.demand_mshr_misses::.cpu.inst          259                       # number of demand (read+write) MSHR misses
system.l2cache.demand_mshr_misses::.cpu.data          163                       # number of demand (read+write) MSHR misses
system.l2cache.demand_mshr_misses::.cpu.dcache.prefetcher           53                       # number of demand (read+write) MSHR misses
system.l2cache.demand_mshr_misses::total          475                       # number of demand (read+write) MSHR misses
system.l2cache.overall_mshr_misses::.cpu.inst          259                       # number of overall MSHR misses
system.l2cache.overall_mshr_misses::.cpu.data          163                       # number of overall MSHR misses
system.l2cache.overall_mshr_misses::.cpu.dcache.prefetcher           53                       # number of overall MSHR misses
system.l2cache.overall_mshr_misses::total          475                       # number of overall MSHR misses
system.l2cache.demand_mshr_miss_latency::.cpu.inst     15409600                       # number of demand (read+write) MSHR miss cycles
system.l2cache.demand_mshr_miss_latency::.cpu.data      9796400                       # number of demand (read+write) MSHR miss cycles
system.l2cache.demand_mshr_miss_latency::.cpu.dcache.prefetcher      3176748                       # number of demand (read+write) MSHR miss cycles
system.l2cache.demand_mshr_miss_latency::total     28382748                       # number of demand (read+write) MSHR miss cycles
system.l2cache.overall_mshr_miss_latency::.cpu.inst     15409600                       # number of overall MSHR miss cycles
system.l2cache.overall_mshr_miss_latency::.cpu.data      9796400                       # number of overall MSHR miss cycles
system.l2cache.overall_mshr_miss_latency::.cpu.dcache.prefetcher      3176748                       # number of overall MSHR miss cycles
system.l2cache.overall_mshr_miss_latency::total     28382748                       # number of overall MSHR miss cycles
system.l2cache.demand_mshr_miss_rate::.cpu.inst     0.595402                       # mshr miss rate for demand accesses
system.l2cache.demand_mshr_miss_rate::.cpu.data     0.450276                       # mshr miss rate for demand accesses
system.l2cache.demand_mshr_miss_rate::.cpu.dcache.prefetcher     0.868852                       # mshr miss rate for demand accesses
system.l2cache.demand_mshr_miss_rate::total     0.553613                       # mshr miss rate for demand accesses
system.l2cache.overall_mshr_miss_rate::.cpu.inst     0.595402                       # mshr miss rate for overall accesses
system.l2cache.overall_mshr_miss_rate::.cpu.data     0.450276                       # mshr miss rate for overall accesses
system.l2cache.overall_mshr_miss_rate::.cpu.dcache.prefetcher     0.868852                       # mshr miss rate for overall accesses
system.l2cache.overall_mshr_miss_rate::total     0.553613                       # mshr miss rate for overall accesses
system.l2cache.demand_avg_mshr_miss_latency::.cpu.inst 59496.525097                       # average overall mshr miss latency
system.l2cache.demand_avg_mshr_miss_latency::.cpu.data 60100.613497                       # average overall mshr miss latency
system.l2cache.demand_avg_mshr_miss_latency::.cpu.dcache.prefetcher 59938.641509                       # average overall mshr miss latency
system.l2cache.demand_avg_mshr_miss_latency::total 59753.153684                       # average overall mshr miss latency
system.l2cache.overall_avg_mshr_miss_latency::.cpu.inst 59496.525097                       # average overall mshr miss latency
system.l2cache.overall_avg_mshr_miss_latency::.cpu.data 60100.613497                       # average overall mshr miss latency
system.l2cache.overall_avg_mshr_miss_latency::.cpu.dcache.prefetcher 59938.641509                       # average overall mshr miss latency
system.l2cache.overall_avg_mshr_miss_latency::total 59753.153684                       # average overall mshr miss latency
system.l2cache.replacements                       478                       # number of replacements
system.l2cache.WritebackDirty_hits::.writebacks          301                       # number of WritebackDirty hits
system.l2cache.WritebackDirty_hits::total          301                       # number of WritebackDirty hits
system.l2cache.WritebackDirty_accesses::.writebacks          301                       # number of WritebackDirty accesses(hits+misses)
system.l2cache.WritebackDirty_accesses::total          301                       # number of WritebackDirty accesses(hits+misses)
system.l2cache.CleanEvict_mshr_misses::.writebacks           16                       # number of CleanEvict MSHR misses
system.l2cache.CleanEvict_mshr_misses::total           16                       # number of CleanEvict MSHR misses
system.l2cache.CleanEvict_mshr_miss_rate::.writebacks          inf                       # mshr miss rate for CleanEvict accesses
system.l2cache.CleanEvict_mshr_miss_rate::total          inf                       # mshr miss rate for CleanEvict accesses
system.l2cache.ReadExReq_hits::.cpu.data            9                       # number of ReadExReq hits
system.l2cache.ReadExReq_hits::total                9                       # number of ReadExReq hits
system.l2cache.ReadExReq_misses::.cpu.data            5                       # number of ReadExReq misses
system.l2cache.ReadExReq_misses::total              5                       # number of ReadExReq misses
system.l2cache.ReadExReq_miss_latency::.cpu.data       382400                       # number of ReadExReq miss cycles
system.l2cache.ReadExReq_miss_latency::total       382400                       # number of ReadExReq miss cycles
system.l2cache.ReadExReq_accesses::.cpu.data           14                       # number of ReadExReq accesses(hits+misses)
system.l2cache.ReadExReq_accesses::total           14                       # number of ReadExReq accesses(hits+misses)
system.l2cache.ReadExReq_miss_rate::.cpu.data     0.357143                       # miss rate for ReadExReq accesses
system.l2cache.ReadExReq_miss_rate::total     0.357143                       # miss rate for ReadExReq accesses
system.l2cache.ReadExReq_avg_miss_latency::.cpu.data        76480                       # average ReadExReq miss latency
system.l2cache.ReadExReq_avg_miss_latency::total        76480                       # average ReadExReq miss latency
system.l2cache.ReadExReq_mshr_misses::.cpu.data            5                       # number of ReadExReq MSHR misses
system.l2cache.ReadExReq_mshr_misses::total            5                       # number of ReadExReq MSHR misses
system.l2cache.ReadExReq_mshr_miss_latency::.cpu.data       342400                       # number of ReadExReq MSHR miss cycles
system.l2cache.ReadExReq_mshr_miss_latency::total       342400                       # number of ReadExReq MSHR miss cycles
system.l2cache.ReadExReq_mshr_miss_rate::.cpu.data     0.357143                       # mshr miss rate for ReadExReq accesses
system.l2cache.ReadExReq_mshr_miss_rate::total     0.357143                       # mshr miss rate for ReadExReq accesses
system.l2cache.ReadExReq_avg_mshr_miss_latency::.cpu.data        68480                       # average ReadExReq mshr miss latency
system.l2cache.ReadExReq_avg_mshr_miss_latency::total        68480                       # average ReadExReq mshr miss latency
system.l2cache.ReadSharedReq_hits::.cpu.inst          176                       # number of ReadSharedReq hits
system.l2cache.ReadSharedReq_hits::.cpu.data          190                       # number of ReadSharedReq hits
system.l2cache.ReadSharedReq_hits::.cpu.dcache.prefetcher            8                       # number of ReadSharedReq hits
system.l2cache.ReadSharedReq_hits::total          374                       # number of ReadSharedReq hits
system.l2cache.ReadSharedReq_misses::.cpu.inst          259                       # number of ReadSharedReq misses
system.l2cache.ReadSharedReq_misses::.cpu.data          158                       # number of ReadSharedReq misses
system.l2cache.ReadSharedReq_misses::.cpu.dcache.prefetcher           53                       # number of ReadSharedReq misses
system.l2cache.ReadSharedReq_misses::total          470                       # number of ReadSharedReq misses
system.l2cache.ReadSharedReq_miss_latency::.cpu.inst     17473600                       # number of ReadSharedReq miss cycles
system.l2cache.ReadSharedReq_miss_latency::.cpu.data     10718000                       # number of ReadSharedReq miss cycles
system.l2cache.ReadSharedReq_miss_latency::.cpu.dcache.prefetcher      3600748                       # number of ReadSharedReq miss cycles
system.l2cache.ReadSharedReq_miss_latency::total     31792348                       # number of ReadSharedReq miss cycles
system.l2cache.ReadSharedReq_accesses::.cpu.inst          435                       # number of ReadSharedReq accesses(hits+misses)
system.l2cache.ReadSharedReq_accesses::.cpu.data          348                       # number of ReadSharedReq accesses(hits+misses)
system.l2cache.ReadSharedReq_accesses::.cpu.dcache.prefetcher           61                       # number of ReadSharedReq accesses(hits+misses)
system.l2cache.ReadSharedReq_accesses::total          844                       # number of ReadSharedReq accesses(hits+misses)
system.l2cache.ReadSharedReq_miss_rate::.cpu.inst     0.595402                       # miss rate for ReadSharedReq accesses
system.l2cache.ReadSharedReq_miss_rate::.cpu.data     0.454023                       # miss rate for ReadSharedReq accesses
system.l2cache.ReadSharedReq_miss_rate::.cpu.dcache.prefetcher     0.868852                       # miss rate for ReadSharedReq accesses
system.l2cache.ReadSharedReq_miss_rate::total     0.556872                       # miss rate for ReadSharedReq accesses
system.l2cache.ReadSharedReq_avg_miss_latency::.cpu.inst 67465.637066                       # average ReadSharedReq miss latency
system.l2cache.ReadSharedReq_avg_miss_latency::.cpu.data 67835.443038                       # average ReadSharedReq miss latency
system.l2cache.ReadSharedReq_avg_miss_latency::.cpu.dcache.prefetcher 67938.641509                       # average ReadSharedReq miss latency
system.l2cache.ReadSharedReq_avg_miss_latency::total 67643.293617                       # average ReadSharedReq miss latency
system.l2cache.ReadSharedReq_mshr_misses::.cpu.inst          259                       # number of ReadSharedReq MSHR misses
system.l2cache.ReadSharedReq_mshr_misses::.cpu.data          158                       # number of ReadSharedReq MSHR misses
system.l2cache.ReadSharedReq_mshr_misses::.cpu.dcache.prefetcher           53                       # number of ReadSharedReq MSHR misses
system.l2cache.ReadSharedReq_mshr_misses::total          470                       # number of ReadSharedReq MSHR misses
system.l2cache.ReadSharedReq_mshr_miss_latency::.cpu.inst     15409600                       # number of ReadSharedReq MSHR miss cycles
system.l2cache.ReadSharedReq_mshr_miss_latency::.cpu.data      9454000                       # number of ReadSharedReq MSHR miss cycles
system.l2cache.ReadSharedReq_mshr_miss_latency::.cpu.dcache.prefetcher      3176748                       # number of ReadSharedReq MSHR miss cycles
system.l2cache.ReadSharedReq_mshr_miss_latency::total     28040348                       # number of ReadSharedReq MSHR miss cycles
system.l2cache.ReadSharedReq_mshr_miss_rate::.cpu.inst     0.595402                       # mshr miss rate for ReadSharedReq accesses
system.l2cache.ReadSharedReq_mshr_miss_rate::.cpu.data     0.454023                       # mshr miss rate for ReadSharedReq accesses
system.l2cache.ReadSharedReq_mshr_miss_rate::.cpu.dcache.prefetcher     0.868852                       # mshr miss rate for ReadSharedReq accesses
system.l2cache.ReadSharedReq_mshr_miss_rate::total     0.556872                       # mshr miss rate for ReadSharedReq accesses
system.l2cache.ReadSharedReq_avg_mshr_miss_latency::.cpu.inst 59496.525097                       # average ReadSharedReq mshr miss latency
system.l2cache.ReadSharedReq_avg_mshr_miss_latency::.cpu.data 59835.443038                       # average ReadSharedReq mshr miss latency
system.l2cache.ReadSharedReq_avg_mshr_miss_latency::.cpu.dcache.prefetcher 59938.641509                       # average ReadSharedReq mshr miss latency
system.l2cache.ReadSharedReq_avg_mshr_miss_latency::total 59660.314894                       # average ReadSharedReq mshr miss latency
system.l2cache.prefetcher.pwrStateResidencyTicks::UNDEFINED     32690400                       # Cumulative time (in ticks) in various power states
system.l2cache.tags.pwrStateResidencyTicks::UNDEFINED     32690400                       # Cumulative time (in ticks) in various power states
system.l2cache.tags.tagsinuse                    4096                       # Cycle average of tags in use
system.l2cache.tags.total_refs                  74612                       # Total number of references to valid blocks.
system.l2cache.tags.sampled_refs                 4574                       # Sample count of references to valid blocks.
system.l2cache.tags.avg_refs                16.312199                       # Average number of references to valid blocks.
system.l2cache.tags.warmup_cycle                    0                       # Cycle when the warmup percentage was hit.
system.l2cache.tags.occ_blocks::.writebacks    38.653072                       # Average occupied blocks per requestor
system.l2cache.tags.occ_blocks::.cpu.inst   990.895042                       # Average occupied blocks per requestor
system.l2cache.tags.occ_blocks::.cpu.data  1903.304908                       # Average occupied blocks per requestor
system.l2cache.tags.occ_blocks::.cpu.dcache.prefetcher   951.081992                       # Average occupied blocks per requestor
system.l2cache.tags.occ_blocks::.l2cache.prefetcher   212.064985                       # Average occupied blocks per requestor
system.l2cache.tags.occ_percent::.writebacks     0.009437                       # Average percentage of cache occupancy
system.l2cache.tags.occ_percent::.cpu.inst     0.241918                       # Average percentage of cache occupancy
system.l2cache.tags.occ_percent::.cpu.data     0.464674                       # Average percentage of cache occupancy
system.l2cache.tags.occ_percent::.cpu.dcache.prefetcher     0.232198                       # Average percentage of cache occupancy
system.l2cache.tags.occ_percent::.l2cache.prefetcher     0.051774                       # Average percentage of cache occupancy
system.l2cache.tags.occ_percent::total              1                       # Average percentage of cache occupancy
system.l2cache.tags.occ_task_id_blocks::1022         1113                       # Occupied blocks per task id
system.l2cache.tags.occ_task_id_blocks::1024         2983                       # Occupied blocks per task id
system.l2cache.tags.age_task_id_blocks_1022::0           13                       # Occupied blocks per task id
system.l2cache.tags.age_task_id_blocks_1022::1           40                       # Occupied blocks per task id
system.l2cache.tags.age_task_id_blocks_1022::3         1060                       # Occupied blocks per task id
system.l2cache.tags.age_task_id_blocks_1024::0          180                       # Occupied blocks per task id
system.l2cache.tags.age_task_id_blocks_1024::1          245                       # Occupied blocks per task id
system.l2cache.tags.age_task_id_blocks_1024::3         2558                       # Occupied blocks per task id
system.l2cache.tags.occ_task_id_percent::1022     0.271729                       # Percentage of cache occupancy per task id
system.l2cache.tags.occ_task_id_percent::1024     0.728271                       # Percentage of cache occupancy per task id
system.l2cache.tags.tag_accesses                14198                       # Number of tag accesses
system.l2cache.tags.data_accesses               14198                       # Number of data accesses
system.mem_ctrl.pwrStateResidencyTicks::UNDEFINED     32690400                       # Cumulative time (in ticks) in various power states
system.mem_ctrl.bytes_read::.cpu.inst           16512                       # Number of bytes read from this memory
system.mem_ctrl.bytes_read::.cpu.data           10432                       # Number of bytes read from this memory
system.mem_ctrl.bytes_read::.cpu.dcache.prefetcher         3392                       # Number of bytes read from this memory
system.mem_ctrl.bytes_read::total               30336                       # Number of bytes read from this memory
system.mem_ctrl.bytes_inst_read::.cpu.inst        16512                       # Number of instructions bytes read from this memory
system.mem_ctrl.bytes_inst_read::total          16512                       # Number of instructions bytes read from this memory
system.mem_ctrl.bytes_written::.writebacks         2368                       # Number of bytes written to this memory
system.mem_ctrl.bytes_written::total             2368                       # Number of bytes written to this memory
system.mem_ctrl.num_reads::.cpu.inst              258                       # Number of read requests responded to by this memory
system.mem_ctrl.num_reads::.cpu.data              163                       # Number of read requests responded to by this memory
system.mem_ctrl.num_reads::.cpu.dcache.prefetcher           53                       # Number of read requests responded to by this memory
system.mem_ctrl.num_reads::total                  474                       # Number of read requests responded to by this memory
system.mem_ctrl.num_writes::.writebacks            37                       # Number of write requests responded to by this memory
system.mem_ctrl.num_writes::total                  37                       # Number of write requests responded to by this memory
system.mem_ctrl.bw_read::.cpu.inst          505102415                       # Total read bandwidth from this memory (bytes/s)
system.mem_ctrl.bw_read::.cpu.data          319115092                       # Total read bandwidth from this memory (bytes/s)
system.mem_ctrl.bw_read::.cpu.dcache.prefetcher    103761349                       # Total read bandwidth from this memory (bytes/s)
system.mem_ctrl.bw_read::total              927978856                       # Total read bandwidth from this memory (bytes/s)
system.mem_ctrl.bw_inst_read::.cpu.inst     505102415                       # Instruction read bandwidth from this memory (bytes/s)
system.mem_ctrl.bw_inst_read::total         505102415                       # Instruction read bandwidth from this memory (bytes/s)
system.mem_ctrl.bw_write::.writebacks        72437168                       # Write bandwidth from this memory (bytes/s)
system.mem_ctrl.bw_write::total              72437168                       # Write bandwidth from this memory (bytes/s)
system.mem_ctrl.bw_total::.writebacks        72437168                       # Total bandwidth to/from this memory (bytes/s)
system.mem_ctrl.bw_total::.cpu.inst         505102415                       # Total bandwidth to/from this memory (bytes/s)
system.mem_ctrl.bw_total::.cpu.data         319115092                       # Total bandwidth to/from this memory (bytes/s)
system.mem_ctrl.bw_total::.cpu.dcache.prefetcher    103761349                       # Total bandwidth to/from this memory (bytes/s)
system.mem_ctrl.bw_total::total            1000416024                       # Total bandwidth to/from this memory (bytes/s)

---------- End Simulation Statistics   ----------
