
---------- Begin Simulation Statistics ----------
final_tick                                 1152530400                       # Number of ticks from beginning of simulation (restored from checkpoints and never reset)
host_inst_rate                                 165716                       # Simulator instruction rate (inst/s)
host_mem_usage                                4403988                       # Number of bytes of host memory used
host_op_rate                                   286932                       # Simulator op (including micro ops) rate (op/s)
host_seconds                                    13.43                       # Real time elapsed on the host
host_tick_rate                               85823897                       # Simulator tick rate (ticks/s)
sim_freq                                 1000000000000                       # Frequency of simulated ticks
sim_insts                                     2225380                       # Number of instructions simulated
sim_ops                                       3853202                       # Number of ops (including micro ops) simulated
sim_seconds                                  0.001153                       # Number of seconds simulated
sim_ticks                                  1152530400                       # Number of ticks simulated
system.cpu.branchPred.BTBCorrect                    0                       # Number of correct BTB predictions (this stat may not work properly.
system.cpu.branchPred.BTBHitPct              0.000000                       # BTB Hit Percentage
system.cpu.branchPred.BTBHits                       0                       # Number of BTB hits
system.cpu.branchPred.BTBLookups               452788                       # Number of BTB lookups
system.cpu.branchPred.RASInCorrect                  7                       # Number of incorrect RAS predictions.
system.cpu.branchPred.condIncorrect             24728                       # Number of conditional branches incorrect
system.cpu.branchPred.condPredicted            478228                       # Number of conditional branches predicted
system.cpu.branchPred.indirectHits             251968                       # Number of indirect target hits.
system.cpu.branchPred.indirectLookups          452788                       # Number of indirect predictor lookups.
system.cpu.branchPred.indirectMisses           200820                       # Number of indirect misses.
system.cpu.branchPred.lookups                  510059                       # Number of BP lookups
system.cpu.branchPred.usedRAS                   14152                       # Number of times the RAS was used to get a target.
system.cpu.branchPredindirectMispredicted        12537                       # Number of mispredicted indirect branches.
system.cpu.cc_regfile_reads                   2471109                       # number of cc regfile reads
system.cpu.cc_regfile_writes                  2090593                       # number of cc regfile writes
system.cpu.commit.amos                              0                       # Number of atomic instructions committed
system.cpu.commit.branchMispredicts             24771                       # The number of times a branch was mispredicted
system.cpu.commit.branches                     362693                       # Number of branches committed
system.cpu.commit.bw_lim_events                640451                       # number cycles where commit BW limit reached
system.cpu.commit.commitNonSpecStalls             732                       # The number of times commit has been forced to stall to communicate backwards
system.cpu.commit.commitSquashedInsts          901924                       # The number of squashed insts skipped by commit
system.cpu.commit.committedInsts              2225380                       # Number of instructions committed
system.cpu.commit.committedOps                3853202                       # Number of ops (including micro ops) committed
system.cpu.commit.committed_per_cycle::samples      2482983                       # Number of insts commited each cycle
system.cpu.commit.committed_per_cycle::mean     1.551844                       # Number of insts commited each cycle
system.cpu.commit.committed_per_cycle::stdev     1.717903                       # Number of insts commited each cycle
system.cpu.commit.committed_per_cycle::underflows            0      0.00%      0.00% # Number of insts commited each cycle
system.cpu.commit.committed_per_cycle::0      1201271     48.38%     48.38% # Number of insts commited each cycle
system.cpu.commit.committed_per_cycle::1       225342      9.08%     57.46% # Number of insts commited each cycle
system.cpu.commit.committed_per_cycle::2       181701      7.32%     64.77% # Number of insts commited each cycle
system.cpu.commit.committed_per_cycle::3       234218      9.43%     74.21% # Number of insts commited each cycle
system.cpu.commit.committed_per_cycle::4       640451     25.79%    100.00% # Number of insts commited each cycle
system.cpu.commit.committed_per_cycle::overflows            0      0.00%    100.00% # Number of insts commited each cycle
system.cpu.commit.committed_per_cycle::min_value            0                       # Number of insts commited each cycle
system.cpu.commit.committed_per_cycle::max_value            4                       # Number of insts commited each cycle
system.cpu.commit.committed_per_cycle::total      2482983                       # Number of insts commited each cycle
system.cpu.commit.fp_insts                     107486                       # Number of committed floating point instructions.
system.cpu.commit.function_calls                12281                       # Number of function calls committed.
system.cpu.commit.int_insts                   3781124                       # Number of committed integer instructions.
system.cpu.commit.loads                        516520                       # Number of loads committed
system.cpu.commit.membars                           1                       # Number of memory barriers committed
system.cpu.commit.op_class_0::No_OpClass        20314      0.53%      0.53% # Class of committed instruction
system.cpu.commit.op_class_0::IntAlu          3026985     78.56%     79.08% # Class of committed instruction
system.cpu.commit.op_class_0::IntMult            4475      0.12%     79.20% # Class of committed instruction
system.cpu.commit.op_class_0::IntDiv            38152      0.99%     80.19% # Class of committed instruction
system.cpu.commit.op_class_0::FloatAdd           4450      0.12%     80.31% # Class of committed instruction
system.cpu.commit.op_class_0::FloatCmp              0      0.00%     80.31% # Class of committed instruction
system.cpu.commit.op_class_0::FloatCvt           1200      0.03%     80.34% # Class of committed instruction
system.cpu.commit.op_class_0::FloatMult             0      0.00%     80.34% # Class of committed instruction
system.cpu.commit.op_class_0::FloatMultAcc            0      0.00%     80.34% # Class of committed instruction
system.cpu.commit.op_class_0::FloatDiv              0      0.00%     80.34% # Class of committed instruction
system.cpu.commit.op_class_0::FloatMisc             0      0.00%     80.34% # Class of committed instruction
system.cpu.commit.op_class_0::FloatSqrt             0      0.00%     80.34% # Class of committed instruction
system.cpu.commit.op_class_0::SimdAdd            6206      0.16%     80.50% # Class of committed instruction
system.cpu.commit.op_class_0::SimdAddAcc            0      0.00%     80.50% # Class of committed instruction
system.cpu.commit.op_class_0::SimdAlu           17560      0.46%     80.95% # Class of committed instruction
system.cpu.commit.op_class_0::SimdCmp               0      0.00%     80.95% # Class of committed instruction
system.cpu.commit.op_class_0::SimdCvt           12094      0.31%     81.27% # Class of committed instruction
system.cpu.commit.op_class_0::SimdMisc           9701      0.25%     81.52% # Class of committed instruction
system.cpu.commit.op_class_0::SimdMult              0      0.00%     81.52% # Class of committed instruction
system.cpu.commit.op_class_0::SimdMultAcc            0      0.00%     81.52% # Class of committed instruction
system.cpu.commit.op_class_0::SimdShift          1080      0.03%     81.55% # Class of committed instruction
system.cpu.commit.op_class_0::SimdShiftAcc            0      0.00%     81.55% # Class of committed instruction
system.cpu.commit.op_class_0::SimdDiv               0      0.00%     81.55% # Class of committed instruction
system.cpu.commit.op_class_0::SimdSqrt              0      0.00%     81.55% # Class of committed instruction
system.cpu.commit.op_class_0::SimdFloatAdd         4800      0.12%     81.67% # Class of committed instruction
system.cpu.commit.op_class_0::SimdFloatAlu            0      0.00%     81.67% # Class of committed instruction
system.cpu.commit.op_class_0::SimdFloatCmp            0      0.00%     81.67% # Class of committed instruction
system.cpu.commit.op_class_0::SimdFloatCvt         3200      0.08%     81.76% # Class of committed instruction
system.cpu.commit.op_class_0::SimdFloatDiv            2      0.00%     81.76% # Class of committed instruction
system.cpu.commit.op_class_0::SimdFloatMisc            0      0.00%     81.76% # Class of committed instruction
system.cpu.commit.op_class_0::SimdFloatMult         1600      0.04%     81.80% # Class of committed instruction
system.cpu.commit.op_class_0::SimdFloatMultAcc            0      0.00%     81.80% # Class of committed instruction
system.cpu.commit.op_class_0::SimdFloatSqrt            0      0.00%     81.80% # Class of committed instruction
system.cpu.commit.op_class_0::SimdReduceAdd            0      0.00%     81.80% # Class of committed instruction
system.cpu.commit.op_class_0::SimdReduceAlu            0      0.00%     81.80% # Class of committed instruction
system.cpu.commit.op_class_0::SimdReduceCmp            0      0.00%     81.80% # Class of committed instruction
system.cpu.commit.op_class_0::SimdFloatReduceAdd            0      0.00%     81.80% # Class of committed instruction
system.cpu.commit.op_class_0::SimdFloatReduceCmp            0      0.00%     81.80% # Class of committed instruction
system.cpu.commit.op_class_0::SimdAes               0      0.00%     81.80% # Class of committed instruction
system.cpu.commit.op_class_0::SimdAesMix            0      0.00%     81.80% # Class of committed instruction
system.cpu.commit.op_class_0::SimdSha1Hash            0      0.00%     81.80% # Class of committed instruction
system.cpu.commit.op_class_0::SimdSha1Hash2            0      0.00%     81.80% # Class of committed instruction
system.cpu.commit.op_class_0::SimdSha256Hash            0      0.00%     81.80% # Class of committed instruction
system.cpu.commit.op_class_0::SimdSha256Hash2            0      0.00%     81.80% # Class of committed instruction
system.cpu.commit.op_class_0::SimdShaSigma2            0      0.00%     81.80% # Class of committed instruction
system.cpu.commit.op_class_0::SimdShaSigma3            0      0.00%     81.80% # Class of committed instruction
system.cpu.commit.op_class_0::SimdPredAlu            0      0.00%     81.80% # Class of committed instruction
system.cpu.commit.op_class_0::MemRead          490221     12.72%     94.52% # Class of committed instruction
system.cpu.commit.op_class_0::MemWrite         166390      4.32%     98.84% # Class of committed instruction
system.cpu.commit.op_class_0::FloatMemRead        26299      0.68%     99.52% # Class of committed instruction
system.cpu.commit.op_class_0::FloatMemWrite        18473      0.48%    100.00% # Class of committed instruction
system.cpu.commit.op_class_0::IprAccess             0      0.00%    100.00% # Class of committed instruction
system.cpu.commit.op_class_0::InstPrefetch            0      0.00%    100.00% # Class of committed instruction
system.cpu.commit.op_class_0::total           3853202                       # Class of committed instruction
system.cpu.commit.refs                         701383                       # Number of memory references committed
system.cpu.commit.swp_count                         0                       # Number of s/w prefetches committed
system.cpu.commit.vec_insts                         0                       # Number of committed Vector instructions.
system.cpu.committedInsts                     2225380                       # Number of Instructions Simulated
system.cpu.committedOps                       3853202                       # Number of Ops (including micro ops) Simulated
system.cpu.cpi                               1.294757                       # CPI: Cycles Per Instruction
system.cpu.cpi_total                         1.294757                       # CPI: Total CPI of All Threads
system.cpu.dcache.prefetcher.num_hwpf_issued         8549                       # number of hwpf issued
system.cpu.dcache.prefetcher.pfBufferHit        35289                       # number of redundant prefetches already in prefetch queue
system.cpu.dcache.prefetcher.pfIdentified        51578                       # number of prefetch candidates identified
system.cpu.dcache.prefetcher.pfInCache              0                       # number of redundant prefetches already in cache/mshr dropped
system.cpu.dcache.prefetcher.pfRemovedFull            0                       # number of prefetches dropped due to prefetch queue size
system.cpu.dcache.prefetcher.pfSpanPage          4922                       # number of prefetches that crossed the page
system.cpu.decode.BlockedCycles               1086111                       # Number of cycles decode is blocked
system.cpu.decode.DecodedInsts                4975636                       # Number of instructions handled by decode
system.cpu.decode.IdleCycles                   311533                       # Number of cycles decode is idle
system.cpu.decode.RunCycles                   1210600                       # Number of cycles decode is running
system.cpu.decode.SquashCycles                  24839                       # Number of cycles decode is squashing
system.cpu.decode.UnblockCycles                 96408                       # Number of cycles decode is unblocking
system.cpu.dtb.rdAccesses                      602703                       # TLB accesses on read requests
system.cpu.dtb.rdMisses                          2201                       # TLB misses on read requests
system.cpu.dtb.wrAccesses                      205170                       # TLB accesses on write requests
system.cpu.dtb.wrMisses                           160                       # TLB misses on write requests
system.cpu.fetch.Branches                      510059                       # Number of branches that fetch encountered
system.cpu.fetch.CacheLines                    258320                       # Number of cache lines fetched
system.cpu.fetch.Cycles                       2357699                       # Number of cycles fetch has run and was not squashing or blocked
system.cpu.fetch.IcacheSquashes                  4672                       # Number of outstanding Icache misses that were squashed
system.cpu.fetch.Insts                        3010061                       # Number of instructions fetch has processed
system.cpu.fetch.MiscStallCycles                   69                       # Number of cycles fetch has spent waiting on interrupts, or bad addresses, or out of MSHRs
system.cpu.fetch.PendingQuiesceStallCycles            6                       # Number of stall cycles due to pending quiesce instructions
system.cpu.fetch.PendingTrapStallCycles           370                       # Number of stall cycles due to pending traps
system.cpu.fetch.SquashCycles                   49678                       # Number of cycles fetch has spent squashing
system.cpu.fetch.branchRate                  0.177022                       # Number of branch fetches per cycle
system.cpu.fetch.icacheStallCycles             346508                       # Number of cycles fetch is stalled on an Icache miss
system.cpu.fetch.predictedBranches             266120                       # Number of branches that fetch has predicted taken
system.cpu.fetch.rate                        1.044679                       # Number of inst fetches per cycle
system.cpu.fetch.rateDist::samples            2729491                       # Number of instructions fetched each cycle (Total)
system.cpu.fetch.rateDist::mean              1.926090                       # Number of instructions fetched each cycle (Total)
system.cpu.fetch.rateDist::stdev             1.927871                       # Number of instructions fetched each cycle (Total)
system.cpu.fetch.rateDist::underflows               0      0.00%      0.00% # Number of instructions fetched each cycle (Total)
system.cpu.fetch.rateDist::0                  1299197     47.60%     47.60% # Number of instructions fetched each cycle (Total)
system.cpu.fetch.rateDist::1                    83988      3.08%     50.68% # Number of instructions fetched each cycle (Total)
system.cpu.fetch.rateDist::2                    64736      2.37%     53.05% # Number of instructions fetched each cycle (Total)
system.cpu.fetch.rateDist::3                    82494      3.02%     56.07% # Number of instructions fetched each cycle (Total)
system.cpu.fetch.rateDist::4                  1199076     43.93%    100.00% # Number of instructions fetched each cycle (Total)
system.cpu.fetch.rateDist::overflows                0      0.00%    100.00% # Number of instructions fetched each cycle (Total)
system.cpu.fetch.rateDist::min_value                0                       # Number of instructions fetched each cycle (Total)
system.cpu.fetch.rateDist::max_value                4                       # Number of instructions fetched each cycle (Total)
system.cpu.fetch.rateDist::total              2729491                       # Number of instructions fetched each cycle (Total)
system.cpu.fp_regfile_reads                    166310                       # number of floating regfile reads
system.cpu.fp_regfile_writes                    92853                       # number of floating regfile writes
system.cpu.fuPool.fu_ticks_busy::IntALU(0)    231011200                       # Total ticks fu was busy
system.cpu.fuPool.fu_ticks_busy::IntALU(1)    231010800                       # Total ticks fu was busy
system.cpu.fuPool.fu_ticks_busy::IntALU(2)    231010800                       # Total ticks fu was busy
system.cpu.fuPool.fu_ticks_busy::IntALU(3)    231010800                       # Total ticks fu was busy
system.cpu.fuPool.fu_ticks_busy::IntALU(4)    231010800                       # Total ticks fu was busy
system.cpu.fuPool.fu_ticks_busy::IntALU(5)    231010800                       # Total ticks fu was busy
system.cpu.fuPool.fu_ticks_busy::IntMultDiv(0)      9347600                       # Total ticks fu was busy
system.cpu.fuPool.fu_ticks_busy::IntMultDiv(1)      9347200                       # Total ticks fu was busy
system.cpu.fuPool.fu_ticks_busy::FP_ALU(0)       712800                       # Total ticks fu was busy
system.cpu.fuPool.fu_ticks_busy::FP_ALU(1)       712800                       # Total ticks fu was busy
system.cpu.fuPool.fu_ticks_busy::FP_ALU(2)       712800                       # Total ticks fu was busy
system.cpu.fuPool.fu_ticks_busy::FP_ALU(3)       712800                       # Total ticks fu was busy
system.cpu.fuPool.fu_ticks_busy::FP_MultDiv(0)            0                       # Total ticks fu was busy
system.cpu.fuPool.fu_ticks_busy::FP_MultDiv(1)            0                       # Total ticks fu was busy
system.cpu.fuPool.fu_ticks_busy::SIMD_Unit(0)      6329200                       # Total ticks fu was busy
system.cpu.fuPool.fu_ticks_busy::SIMD_Unit(1)      6257600                       # Total ticks fu was busy
system.cpu.fuPool.fu_ticks_busy::SIMD_Unit(2)      6356400                       # Total ticks fu was busy
system.cpu.fuPool.fu_ticks_busy::SIMD_Unit(3)      6437600                       # Total ticks fu was busy
system.cpu.fuPool.fu_ticks_busy::PredALU(0)            0                       # Total ticks fu was busy
system.cpu.fuPool.fu_ticks_busy::RdWrPort(0)     82324800                       # Total ticks fu was busy
system.cpu.fuPool.fu_ticks_busy::RdWrPort(1)     82350400                       # Total ticks fu was busy
system.cpu.fuPool.fu_ticks_busy::RdWrPort(2)     82294800                       # Total ticks fu was busy
system.cpu.fuPool.fu_ticks_busy::RdWrPort(3)     82255200                       # Total ticks fu was busy
system.cpu.fuPool.fu_ticks_busy::IprPort(0)            0                       # Total ticks fu was busy
system.cpu.fuPool.fu_ticks_busy::total     1762217200                       # Total ticks fu was busy
system.cpu.icache.prefetcher.num_hwpf_issued            0                       # number of hwpf issued
system.cpu.icache.prefetcher.pfBufferHit            0                       # number of redundant prefetches already in prefetch queue
system.cpu.icache.prefetcher.pfIdentified            0                       # number of prefetch candidates identified
system.cpu.icache.prefetcher.pfInCache              0                       # number of redundant prefetches already in cache/mshr dropped
system.cpu.icache.prefetcher.pfRemovedFull            0                       # number of prefetches dropped due to prefetch queue size
system.cpu.icache.prefetcher.pfSpanPage             0                       # number of prefetches that crossed the page
system.cpu.idleCycles                          151836                       # Total number of cycles that the CPU has spent unscheduled due to idling
system.cpu.iew.branchMispredicts                29195                       # Number of branch mispredicts detected at execute
system.cpu.iew.exec_branches                   393772                       # Number of branches executed
system.cpu.iew.exec_nop                             0                       # number of nop insts executed
system.cpu.iew.exec_rate                     1.525932                       # Inst execution rate
system.cpu.iew.exec_refs                       809628                       # number of memory reference insts executed
system.cpu.iew.exec_stores                     205159                       # Number of stores executed
system.cpu.iew.exec_swp                             0                       # number of swp insts executed
system.cpu.iew.iewBlockCycles                  691870                       # Number of cycles IEW is blocking
system.cpu.iew.iewDispLoadInsts                636068                       # Number of dispatched load instructions
system.cpu.iew.iewDispNonSpecInsts                923                       # Number of dispatched non-speculative instructions
system.cpu.iew.iewDispSquashedInsts               588                       # Number of squashed instructions skipped by dispatch
system.cpu.iew.iewDispStoreInsts               215708                       # Number of dispatched store instructions
system.cpu.iew.iewDispatchedInsts             4755045                       # Number of instructions dispatched to IQ
system.cpu.iew.iewExecLoadInsts                604469                       # Number of load instructions executed
system.cpu.iew.iewExecSquashedInsts             35132                       # Number of squashed instructions skipped in execute
system.cpu.iew.iewExecutedInsts               4396708                       # Number of executed instructions
system.cpu.iew.iewIQFullEvents                   3237                       # Number of times the IQ has become full, causing a stall
system.cpu.iew.iewIdleCycles                        0                       # Number of cycles IEW is idle
system.cpu.iew.iewLSQFullEvents                 16472                       # Number of times the LSQ has become full, causing a stall
system.cpu.iew.iewSquashCycles                  24839                       # Number of cycles IEW is squashing
system.cpu.iew.iewUnblockCycles                 22535                       # Number of cycles IEW is unblocking
system.cpu.iew.lsq.thread0.blockedLoads             0                       # Number of blocked loads due to partial load-store forwarding
system.cpu.iew.lsq.thread0.cacheBlocked           622                       # Number of times an access to memory failed due to the cache being blocked
system.cpu.iew.lsq.thread0.forwLoads            43909                       # Number of loads that had data forwarded from stores
system.cpu.iew.lsq.thread0.ignoredResponses          229                       # Number of memory responses ignored because the instruction is squashed
system.cpu.iew.lsq.thread0.invAddrLoads             0                       # Number of loads ignored due to an invalid address
system.cpu.iew.lsq.thread0.invAddrSwpfs             0                       # Number of software prefetches ignored due to an invalid address
system.cpu.iew.lsq.thread0.memOrderViolation           85                       # Number of memory ordering violations
system.cpu.iew.lsq.thread0.rescheduledLoads            0                       # Number of loads that were rescheduled
system.cpu.iew.lsq.thread0.squashedLoads       119546                       # Number of loads squashed
system.cpu.iew.lsq.thread0.squashedStores        30844                       # Number of stores squashed
system.cpu.iew.memOrderViolationEvents             85                       # Number of memory order violations
system.cpu.iew.predictedNotTakenIncorrect        20932                       # Number of branches that were predicted not taken incorrectly
system.cpu.iew.predictedTakenIncorrect           8263                       # Number of branches that were predicted taken incorrectly
system.cpu.iew.wb_consumers                   6174628                       # num instructions consuming a value
system.cpu.iew.wb_count                       4374010                       # cumulative count of insts written-back
system.cpu.iew.wb_fanout                     0.567102                       # average fanout of values written-back
system.cpu.iew.wb_producers                   3501642                       # num instructions producing a value
system.cpu.iew.wb_rate                       1.518054                       # insts written-back per cycle
system.cpu.iew.wb_sent                        4381065                       # cumulative count of insts sent to commit
system.cpu.int_regfile_reads                  6801131                       # number of integer regfile reads
system.cpu.int_regfile_writes                 3762940                       # number of integer regfile writes
system.cpu.ipc                               0.772346                       # IPC: Instructions Per Cycle
system.cpu.ipc_total                         0.772346                       # IPC: Total IPC of All Threads
system.cpu.iq.FU_type_0::No_OpClass             26297      0.59%      0.59% # Type of FU issued
system.cpu.iq.FU_type_0::IntAlu               3465165     78.19%     78.78% # Type of FU issued
system.cpu.iq.FU_type_0::IntMult                 4511      0.10%     78.88% # Type of FU issued
system.cpu.iq.FU_type_0::IntDiv                 42226      0.95%     79.84% # Type of FU issued
system.cpu.iq.FU_type_0::FloatAdd                5876      0.13%     79.97% # Type of FU issued
system.cpu.iq.FU_type_0::FloatCmp                   0      0.00%     79.97% # Type of FU issued
system.cpu.iq.FU_type_0::FloatCvt                1252      0.03%     80.00% # Type of FU issued
system.cpu.iq.FU_type_0::FloatMult                  0      0.00%     80.00% # Type of FU issued
system.cpu.iq.FU_type_0::FloatMultAcc               0      0.00%     80.00% # Type of FU issued
system.cpu.iq.FU_type_0::FloatDiv                   0      0.00%     80.00% # Type of FU issued
system.cpu.iq.FU_type_0::FloatMisc                  0      0.00%     80.00% # Type of FU issued
system.cpu.iq.FU_type_0::FloatSqrt                  0      0.00%     80.00% # Type of FU issued
system.cpu.iq.FU_type_0::SimdAdd                 6727      0.15%     80.15% # Type of FU issued
system.cpu.iq.FU_type_0::SimdAddAcc                 0      0.00%     80.15% # Type of FU issued
system.cpu.iq.FU_type_0::SimdAlu                21237      0.48%     80.63% # Type of FU issued
system.cpu.iq.FU_type_0::SimdCmp                    0      0.00%     80.63% # Type of FU issued
system.cpu.iq.FU_type_0::SimdCvt                13585      0.31%     80.93% # Type of FU issued
system.cpu.iq.FU_type_0::SimdMisc               10191      0.23%     81.16% # Type of FU issued
system.cpu.iq.FU_type_0::SimdMult                   0      0.00%     81.16% # Type of FU issued
system.cpu.iq.FU_type_0::SimdMultAcc                0      0.00%     81.16% # Type of FU issued
system.cpu.iq.FU_type_0::SimdShift               2092      0.05%     81.21% # Type of FU issued
system.cpu.iq.FU_type_0::SimdShiftAcc               0      0.00%     81.21% # Type of FU issued
system.cpu.iq.FU_type_0::SimdDiv                    0      0.00%     81.21% # Type of FU issued
system.cpu.iq.FU_type_0::SimdSqrt                   0      0.00%     81.21% # Type of FU issued
system.cpu.iq.FU_type_0::SimdFloatAdd            4806      0.11%     81.32% # Type of FU issued
system.cpu.iq.FU_type_0::SimdFloatAlu               0      0.00%     81.32% # Type of FU issued
system.cpu.iq.FU_type_0::SimdFloatCmp               0      0.00%     81.32% # Type of FU issued
system.cpu.iq.FU_type_0::SimdFloatCvt            3203      0.07%     81.39% # Type of FU issued
system.cpu.iq.FU_type_0::SimdFloatDiv              11      0.00%     81.39% # Type of FU issued
system.cpu.iq.FU_type_0::SimdFloatMisc              0      0.00%     81.39% # Type of FU issued
system.cpu.iq.FU_type_0::SimdFloatMult           1600      0.04%     81.43% # Type of FU issued
system.cpu.iq.FU_type_0::SimdFloatMultAcc            0      0.00%     81.43% # Type of FU issued
system.cpu.iq.FU_type_0::SimdFloatSqrt              0      0.00%     81.43% # Type of FU issued
system.cpu.iq.FU_type_0::SimdReduceAdd              0      0.00%     81.43% # Type of FU issued
system.cpu.iq.FU_type_0::SimdReduceAlu              0      0.00%     81.43% # Type of FU issued
system.cpu.iq.FU_type_0::SimdReduceCmp              0      0.00%     81.43% # Type of FU issued
system.cpu.iq.FU_type_0::SimdFloatReduceAdd            0      0.00%     81.43% # Type of FU issued
system.cpu.iq.FU_type_0::SimdFloatReduceCmp            0      0.00%     81.43% # Type of FU issued
system.cpu.iq.FU_type_0::SimdAes                    0      0.00%     81.43% # Type of FU issued
system.cpu.iq.FU_type_0::SimdAesMix                 0      0.00%     81.43% # Type of FU issued
system.cpu.iq.FU_type_0::SimdSha1Hash               0      0.00%     81.43% # Type of FU issued
system.cpu.iq.FU_type_0::SimdSha1Hash2              0      0.00%     81.43% # Type of FU issued
system.cpu.iq.FU_type_0::SimdSha256Hash             0      0.00%     81.43% # Type of FU issued
system.cpu.iq.FU_type_0::SimdSha256Hash2            0      0.00%     81.43% # Type of FU issued
system.cpu.iq.FU_type_0::SimdShaSigma2              0      0.00%     81.43% # Type of FU issued
system.cpu.iq.FU_type_0::SimdShaSigma3              0      0.00%     81.43% # Type of FU issued
system.cpu.iq.FU_type_0::SimdPredAlu                0      0.00%     81.43% # Type of FU issued
system.cpu.iq.FU_type_0::MemRead               583336     13.16%     94.59% # Type of FU issued
system.cpu.iq.FU_type_0::MemWrite              187957      4.24%     98.83% # Type of FU issued
system.cpu.iq.FU_type_0::FloatMemRead           31865      0.72%     99.55% # Type of FU issued
system.cpu.iq.FU_type_0::FloatMemWrite          19907      0.45%    100.00% # Type of FU issued
system.cpu.iq.FU_type_0::IprAccess                  0      0.00%    100.00% # Type of FU issued
system.cpu.iq.FU_type_0::InstPrefetch               0      0.00%    100.00% # Type of FU issued
system.cpu.iq.FU_type_0::total                4431844                       # Type of FU issued
system.cpu.iq.fp_alu_accesses                  123343                       # Number of floating point alu accesses
system.cpu.iq.fp_inst_queue_reads              248006                       # Number of floating instruction queue reads
system.cpu.iq.fp_inst_queue_wakeup_accesses       120011                       # Number of floating instruction queue wakeup accesses
system.cpu.iq.fp_inst_queue_writes             162970                       # Number of floating instruction queue writes
system.cpu.iq.fu_busy_cnt                           0                       # FU busy when requested
system.cpu.iq.fu_busy_rate                          0                       # FU busy rate (busy events/executed inst)
system.cpu.iq.fu_full::No_OpClass                   0                       # attempts to use FU when none available
system.cpu.iq.fu_full::IntAlu                       0                       # attempts to use FU when none available
system.cpu.iq.fu_full::IntMult                      0                       # attempts to use FU when none available
system.cpu.iq.fu_full::IntDiv                       0                       # attempts to use FU when none available
system.cpu.iq.fu_full::FloatAdd                     0                       # attempts to use FU when none available
system.cpu.iq.fu_full::FloatCmp                     0                       # attempts to use FU when none available
system.cpu.iq.fu_full::FloatCvt                     0                       # attempts to use FU when none available
system.cpu.iq.fu_full::FloatMult                    0                       # attempts to use FU when none available
system.cpu.iq.fu_full::FloatMultAcc                 0                       # attempts to use FU when none available
system.cpu.iq.fu_full::FloatDiv                     0                       # attempts to use FU when none available
system.cpu.iq.fu_full::FloatMisc                    0                       # attempts to use FU when none available
system.cpu.iq.fu_full::FloatSqrt                    0                       # attempts to use FU when none available
system.cpu.iq.fu_full::SimdAdd                      0                       # attempts to use FU when none available
system.cpu.iq.fu_full::SimdAddAcc                   0                       # attempts to use FU when none available
system.cpu.iq.fu_full::SimdAlu                      0                       # attempts to use FU when none available
system.cpu.iq.fu_full::SimdCmp                      0                       # attempts to use FU when none available
system.cpu.iq.fu_full::SimdCvt                      0                       # attempts to use FU when none available
system.cpu.iq.fu_full::SimdMisc                     0                       # attempts to use FU when none available
system.cpu.iq.fu_full::SimdMult                     0                       # attempts to use FU when none available
system.cpu.iq.fu_full::SimdMultAcc                  0                       # attempts to use FU when none available
system.cpu.iq.fu_full::SimdShift                    0                       # attempts to use FU when none available
system.cpu.iq.fu_full::SimdShiftAcc                 0                       # attempts to use FU when none available
system.cpu.iq.fu_full::SimdDiv                      0                       # attempts to use FU when none available
system.cpu.iq.fu_full::SimdSqrt                     0                       # attempts to use FU when none available
system.cpu.iq.fu_full::SimdFloatAdd                 0                       # attempts to use FU when none available
system.cpu.iq.fu_full::SimdFloatAlu                 0                       # attempts to use FU when none available
system.cpu.iq.fu_full::SimdFloatCmp                 0                       # attempts to use FU when none available
system.cpu.iq.fu_full::SimdFloatCvt                 0                       # attempts to use FU when none available
system.cpu.iq.fu_full::SimdFloatDiv                 0                       # attempts to use FU when none available
system.cpu.iq.fu_full::SimdFloatMisc                0                       # attempts to use FU when none available
system.cpu.iq.fu_full::SimdFloatMult                0                       # attempts to use FU when none available
system.cpu.iq.fu_full::SimdFloatMultAcc             0                       # attempts to use FU when none available
system.cpu.iq.fu_full::SimdFloatSqrt                0                       # attempts to use FU when none available
system.cpu.iq.fu_full::SimdReduceAdd                0                       # attempts to use FU when none available
system.cpu.iq.fu_full::SimdReduceAlu                0                       # attempts to use FU when none available
system.cpu.iq.fu_full::SimdReduceCmp                0                       # attempts to use FU when none available
system.cpu.iq.fu_full::SimdFloatReduceAdd            0                       # attempts to use FU when none available
system.cpu.iq.fu_full::SimdFloatReduceCmp            0                       # attempts to use FU when none available
system.cpu.iq.fu_full::SimdAes                      0                       # attempts to use FU when none available
system.cpu.iq.fu_full::SimdAesMix                   0                       # attempts to use FU when none available
system.cpu.iq.fu_full::SimdSha1Hash                 0                       # attempts to use FU when none available
system.cpu.iq.fu_full::SimdSha1Hash2                0                       # attempts to use FU when none available
system.cpu.iq.fu_full::SimdSha256Hash               0                       # attempts to use FU when none available
system.cpu.iq.fu_full::SimdSha256Hash2              0                       # attempts to use FU when none available
system.cpu.iq.fu_full::SimdShaSigma2                0                       # attempts to use FU when none available
system.cpu.iq.fu_full::SimdShaSigma3                0                       # attempts to use FU when none available
system.cpu.iq.fu_full::SimdPredAlu                  0                       # attempts to use FU when none available
system.cpu.iq.fu_full::MemRead                      0                       # attempts to use FU when none available
system.cpu.iq.fu_full::MemWrite                     0                       # attempts to use FU when none available
system.cpu.iq.fu_full::FloatMemRead                 0                       # attempts to use FU when none available
system.cpu.iq.fu_full::FloatMemWrite                0                       # attempts to use FU when none available
system.cpu.iq.fu_full::IprAccess                    0                       # attempts to use FU when none available
system.cpu.iq.fu_full::InstPrefetch                 0                       # attempts to use FU when none available
system.cpu.iq.int_alu_accesses                4282204                       # Number of integer alu accesses
system.cpu.iq.int_inst_queue_reads           11364131                       # Number of integer instruction queue reads
system.cpu.iq.int_inst_queue_wakeup_accesses      4253999                       # Number of integer instruction queue wakeup accesses
system.cpu.iq.int_inst_queue_writes           5493989                       # Number of integer instruction queue writes
system.cpu.iq.iqInstsAdded                    4753949                       # Number of instructions added to the IQ (excludes non-spec)
system.cpu.iq.iqInstsIssued                   4431844                       # Number of instructions issued
system.cpu.iq.iqNonSpecInstsAdded                1096                       # Number of non-speculative instructions added to the IQ
system.cpu.iq.iqSquashedInstsExamined          901832                       # Number of squashed instructions iterated over during squash; mainly for profiling
system.cpu.iq.iqSquashedInstsIssued             18962                       # Number of squashed instructions issued
system.cpu.iq.iqSquashedNonSpecRemoved            364                       # Number of squashed non-spec instructions that were removed
system.cpu.iq.iqSquashedOperandsExamined      1339191                       # Number of squashed operands that are examined and possibly removed from graph
system.cpu.iq.issued_per_cycle::samples       2729491                       # Number of insts issued each cycle
system.cpu.iq.issued_per_cycle::mean         1.623689                       # Number of insts issued each cycle
system.cpu.iq.issued_per_cycle::stdev        1.659385                       # Number of insts issued each cycle
system.cpu.iq.issued_per_cycle::underflows            0      0.00%      0.00% # Number of insts issued each cycle
system.cpu.iq.issued_per_cycle::0             1212550     44.42%     44.42% # Number of insts issued each cycle
system.cpu.iq.issued_per_cycle::1              206169      7.55%     51.98% # Number of insts issued each cycle
system.cpu.iq.issued_per_cycle::2              327559     12.00%     63.98% # Number of insts issued each cycle
system.cpu.iq.issued_per_cycle::3              362295     13.27%     77.25% # Number of insts issued each cycle
system.cpu.iq.issued_per_cycle::4              620918     22.75%    100.00% # Number of insts issued each cycle
system.cpu.iq.issued_per_cycle::overflows            0      0.00%    100.00% # Number of insts issued each cycle
system.cpu.iq.issued_per_cycle::min_value            0                       # Number of insts issued each cycle
system.cpu.iq.issued_per_cycle::max_value            4                       # Number of insts issued each cycle
system.cpu.iq.issued_per_cycle::total         2729491                       # Number of insts issued each cycle
system.cpu.iq.rate                           1.538126                       # Inst issue rate
system.cpu.iq.vec_alu_accesses                      0                       # Number of vector alu accesses
system.cpu.iq.vec_inst_queue_reads                  0                       # Number of vector instruction queue reads
system.cpu.iq.vec_inst_queue_wakeup_accesses            0                       # Number of vector instruction queue wakeup accesses
system.cpu.iq.vec_inst_queue_writes                 0                       # Number of vector instruction queue writes
system.cpu.itb.rdAccesses                           0                       # TLB accesses on read requests
system.cpu.itb.rdMisses                             0                       # TLB misses on read requests
system.cpu.itb.wrAccesses                      258379                       # TLB accesses on write requests
system.cpu.itb.wrMisses                           302                       # TLB misses on write requests
system.cpu.memDep0.conflictingLoads             16251                       # Number of conflicting loads.
system.cpu.memDep0.conflictingStores             7584                       # Number of conflicting stores.
system.cpu.memDep0.insertedLoads               636068                       # Number of loads inserted to the mem dependence unit.
system.cpu.memDep0.insertedStores              215708                       # Number of stores inserted to the mem dependence unit.
system.cpu.misc_regfile_reads                 1640353                       # number of misc regfile reads
system.cpu.misc_regfile_writes                    675                       # number of misc regfile writes
system.cpu.numCycles                          2881327                       # number of cpu cycles simulated
system.cpu.numWorkItemsCompleted                    0                       # number of work items this cpu completed
system.cpu.numWorkItemsStarted                      0                       # number of work items this cpu started
system.cpu.process.numSyscalls                     56                       # Number of system calls
system.cpu.rename.BlockCycles                  856201                       # Number of cycles rename is blocking
system.cpu.rename.CommittedMaps               5308594                       # Number of HB maps that are committed
system.cpu.rename.FullRegisterEvents               86                       # Number of times there has been no free registers
system.cpu.rename.IQFullEvents                  56681                       # Number of times rename has blocked due to IQ full
system.cpu.rename.IdleCycles                   366230                       # Number of cycles rename is idle
system.cpu.rename.LQFullEvents                  19263                       # Number of times rename has blocked due to LQ full
system.cpu.rename.ROBFullEvents                  4936                       # Number of times rename has blocked due to ROB full
system.cpu.rename.RenameLookups              12740486                       # Number of register rename lookups that rename has made
system.cpu.rename.RenamedInsts                4899276                       # Number of instructions processed by rename
system.cpu.rename.RenamedOperands             6725642                       # Number of destination operands rename has renamed
system.cpu.rename.RunCycles                   1243129                       # Number of cycles rename is running
system.cpu.rename.SQFullEvents                 104655                       # Number of times rename has blocked due to SQ full
system.cpu.rename.SquashCycles                  24839                       # Number of cycles rename is squashing
system.cpu.rename.UnblockCycles                219580                       # Number of cycles rename is unblocking
system.cpu.rename.UndoneMaps                  1417022                       # Number of HB maps that are undone due to squashing
system.cpu.rename.fp_rename_lookups            200209                       # Number of floating rename lookups
system.cpu.rename.int_rename_lookups          7759607                       # Number of integer rename lookups
system.cpu.rename.serializeStallCycles          19512                       # count of cycles rename stalled for serializing inst
system.cpu.rename.serializingInsts                868                       # count of serializing insts renamed
system.cpu.rename.skidInsts                    231328                       # count of insts added to the skid buffer
system.cpu.rename.tempSerializingInsts            916                       # count of temporary serializing insts renamed
system.cpu.rob.rob_reads                      6597658                       # The number of ROB reads
system.cpu.rob.rob_writes                     9757702                       # The number of ROB writes
system.cpu.timesIdled                            1483                       # Number of times that the entire CPU went into an idle state and unscheduled itself
system.l2bus.snoop_filter.hit_multi_requests           11                       # Number of requests hitting in the snoop filter with multiple (>1) holders of the requested data.
system.l2bus.snoop_filter.hit_multi_snoops            1                       # Number of snoops hitting in the snoop filter with multiple (>1) holders of the requested data.
system.l2bus.snoop_filter.hit_single_requests        19116                       # Number of requests hitting in the snoop filter with a single holder of the requested data.
system.l2bus.snoop_filter.hit_single_snoops          455                       # Number of snoops hitting in the snoop filter with a single holder of the requested data.
system.l2bus.snoop_filter.tot_requests          39514                       # Total number of requests made to the snoop filter.
system.l2bus.snoop_filter.tot_snoops              456                       # Total number of snoops made to the snoop filter.
system.l2cache.prefetcher.num_hwpf_issued          869                       # number of hwpf issued
system.l2cache.prefetcher.pfBufferHit               0                       # number of redundant prefetches already in prefetch queue
system.l2cache.prefetcher.pfIdentified            870                       # number of prefetch candidates identified
system.l2cache.prefetcher.pfInCache                 0                       # number of redundant prefetches already in cache/mshr dropped
system.l2cache.prefetcher.pfRemovedFull             0                       # number of prefetches dropped due to prefetch queue size
system.l2cache.prefetcher.pfSpanPage              126                       # number of prefetches that crossed the page
system.membus.snoop_filter.hit_multi_requests            0                       # Number of requests hitting in the snoop filter with multiple (>1) holders of the requested data.
system.membus.snoop_filter.hit_multi_snoops            0                       # Number of snoops hitting in the snoop filter with multiple (>1) holders of the requested data.
system.membus.snoop_filter.hit_single_requests         9927                       # Number of requests hitting in the snoop filter with a single holder of the requested data.
system.membus.snoop_filter.hit_single_snoops            0                       # Number of snoops hitting in the snoop filter with a single holder of the requested data.
system.membus.snoop_filter.tot_requests         23968                       # Total number of requests made to the snoop filter.
system.membus.snoop_filter.tot_snoops               0                       # Total number of snoops made to the snoop filter.
system.membus.pwrStateResidencyTicks::UNDEFINED   1152530400                       # Cumulative time (in ticks) in various power states
system.membus.trans_dist::ReadResp              12386                       # Transaction distribution
system.membus.trans_dist::WritebackDirty         1397                       # Transaction distribution
system.membus.trans_dist::CleanEvict             8530                       # Transaction distribution
system.membus.trans_dist::ReadExReq              1655                       # Transaction distribution
system.membus.trans_dist::ReadExResp             1655                       # Transaction distribution
system.membus.trans_dist::ReadSharedReq         12386                       # Transaction distribution
system.membus.pkt_count_system.l2cache.mem_side::system.mem_ctrl.port        38009                       # Packet count per connected master and slave (bytes)
system.membus.pkt_count_system.l2cache.mem_side::total        38009                       # Packet count per connected master and slave (bytes)
system.membus.pkt_count::total                  38009                       # Packet count per connected master and slave (bytes)
system.membus.pkt_size_system.l2cache.mem_side::system.mem_ctrl.port       988032                       # Cumulative packet size per connected master and slave (bytes)
system.membus.pkt_size_system.l2cache.mem_side::total       988032                       # Cumulative packet size per connected master and slave (bytes)
system.membus.pkt_size::total                  988032                       # Cumulative packet size per connected master and slave (bytes)
system.membus.snoops                                0                       # Total snoops (count)
system.membus.snoopTraffic                          0                       # Total snoop traffic (bytes)
system.membus.snoop_fanout::samples             14041                       # Request fanout histogram
system.membus.snoop_fanout::mean                    0                       # Request fanout histogram
system.membus.snoop_fanout::stdev                   0                       # Request fanout histogram
system.membus.snoop_fanout::underflows              0      0.00%      0.00% # Request fanout histogram
system.membus.snoop_fanout::0                   14041    100.00%    100.00% # Request fanout histogram
system.membus.snoop_fanout::1                       0      0.00%    100.00% # Request fanout histogram
system.membus.snoop_fanout::overflows               0      0.00%    100.00% # Request fanout histogram
system.membus.snoop_fanout::min_value               0                       # Request fanout histogram
system.membus.snoop_fanout::max_value               0                       # Request fanout histogram
system.membus.snoop_fanout::total               14041                       # Request fanout histogram
system.membus.reqLayer2.occupancy            11859338                       # Layer occupancy (ticks)
system.membus.reqLayer2.utilization               1.0                       # Layer utilization (%)
system.membus.respLayer0.occupancy           30452762                       # Layer occupancy (ticks)
system.membus.respLayer0.utilization              2.6                       # Layer utilization (%)
system.l2bus.pwrStateResidencyTicks::UNDEFINED   1152530400                       # Cumulative time (in ticks) in various power states
system.l2bus.trans_dist::ReadResp               17980                       # Transaction distribution
system.l2bus.trans_dist::WritebackDirty          4397                       # Transaction distribution
system.l2bus.trans_dist::CleanEvict             24740                       # Transaction distribution
system.l2bus.trans_dist::HardPFReq               1248                       # Transaction distribution
system.l2bus.trans_dist::UpgradeReq                 1                       # Transaction distribution
system.l2bus.trans_dist::UpgradeResp                1                       # Transaction distribution
system.l2bus.trans_dist::ReadExReq               2417                       # Transaction distribution
system.l2bus.trans_dist::ReadExResp              2417                       # Transaction distribution
system.l2bus.trans_dist::ReadSharedReq          17980                       # Transaction distribution
system.l2bus.pkt_count_system.cpu.icache.mem_side::system.l2cache.cpu_side         7670                       # Packet count per connected master and slave (bytes)
system.l2bus.pkt_count_system.cpu.dcache.mem_side::system.l2cache.cpu_side        52240                       # Packet count per connected master and slave (bytes)
system.l2bus.pkt_count::total                   59910                       # Packet count per connected master and slave (bytes)
system.l2bus.pkt_size_system.cpu.icache.mem_side::system.l2cache.cpu_side       169024                       # Cumulative packet size per connected master and slave (bytes)
system.l2bus.pkt_size_system.cpu.dcache.mem_side::system.l2cache.cpu_side      1328256                       # Cumulative packet size per connected master and slave (bytes)
system.l2bus.pkt_size::total                  1497280                       # Cumulative packet size per connected master and slave (bytes)
system.l2bus.snoops                             11271                       # Total snoops (count)
system.l2bus.snoopTraffic                       89536                       # Total snoop traffic (bytes)
system.l2bus.snoop_fanout::samples              31667                       # Request fanout histogram
system.l2bus.snoop_fanout::mean              0.014779                       # Request fanout histogram
system.l2bus.snoop_fanout::stdev             0.120930                       # Request fanout histogram
system.l2bus.snoop_fanout::underflows               0      0.00%      0.00% # Request fanout histogram
system.l2bus.snoop_fanout::0                    31200     98.53%     98.53% # Request fanout histogram
system.l2bus.snoop_fanout::1                      466      1.47%    100.00% # Request fanout histogram
system.l2bus.snoop_fanout::2                        1      0.00%    100.00% # Request fanout histogram
system.l2bus.snoop_fanout::overflows                0      0.00%    100.00% # Request fanout histogram
system.l2bus.snoop_fanout::min_value                0                       # Request fanout histogram
system.l2bus.snoop_fanout::max_value                2                       # Request fanout histogram
system.l2bus.snoop_fanout::total                31667                       # Request fanout histogram
system.l2bus.respLayer1.occupancy            21305200                       # Layer occupancy (ticks)
system.l2bus.respLayer1.utilization               1.8                       # Layer utilization (%)
system.l2bus.reqLayer0.occupancy             19734802                       # Layer occupancy (ticks)
system.l2bus.reqLayer0.utilization                1.7                       # Layer utilization (%)
system.l2bus.respLayer0.occupancy             3172398                       # Layer occupancy (ticks)
system.l2bus.respLayer0.utilization               0.3                       # Layer utilization (%)
system.clk_domain.clock                           400                       # Clock period in ticks
system.clk_domain.voltage_domain.voltage            1                       # Voltage in Volts
system.cpu.pwrStateResidencyTicks::ON      1152530400                       # Cumulative time (in ticks) in various power states
system.cpu.icache.pwrStateResidencyTicks::UNDEFINED   1152530400                       # Cumulative time (in ticks) in various power states
system.cpu.icache.demand_hits::.cpu.inst       254964                       # number of demand (read+write) hits
system.cpu.icache.demand_hits::total           254964                       # number of demand (read+write) hits
system.cpu.icache.overall_hits::.cpu.inst       254964                       # number of overall hits
system.cpu.icache.overall_hits::total          254964                       # number of overall hits
system.cpu.icache.demand_misses::.cpu.inst         3355                       # number of demand (read+write) misses
system.cpu.icache.demand_misses::total           3355                       # number of demand (read+write) misses
system.cpu.icache.overall_misses::.cpu.inst         3355                       # number of overall misses
system.cpu.icache.overall_misses::total          3355                       # number of overall misses
system.cpu.icache.demand_miss_latency::.cpu.inst    168559200                       # number of demand (read+write) miss cycles
system.cpu.icache.demand_miss_latency::total    168559200                       # number of demand (read+write) miss cycles
system.cpu.icache.overall_miss_latency::.cpu.inst    168559200                       # number of overall miss cycles
system.cpu.icache.overall_miss_latency::total    168559200                       # number of overall miss cycles
system.cpu.icache.demand_accesses::.cpu.inst       258319                       # number of demand (read+write) accesses
system.cpu.icache.demand_accesses::total       258319                       # number of demand (read+write) accesses
system.cpu.icache.overall_accesses::.cpu.inst       258319                       # number of overall (read+write) accesses
system.cpu.icache.overall_accesses::total       258319                       # number of overall (read+write) accesses
system.cpu.icache.demand_miss_rate::.cpu.inst     0.012988                       # miss rate for demand accesses
system.cpu.icache.demand_miss_rate::total     0.012988                       # miss rate for demand accesses
system.cpu.icache.overall_miss_rate::.cpu.inst     0.012988                       # miss rate for overall accesses
system.cpu.icache.overall_miss_rate::total     0.012988                       # miss rate for overall accesses
system.cpu.icache.demand_avg_miss_latency::.cpu.inst 50241.192250                       # average overall miss latency
system.cpu.icache.demand_avg_miss_latency::total 50241.192250                       # average overall miss latency
system.cpu.icache.overall_avg_miss_latency::.cpu.inst 50241.192250                       # average overall miss latency
system.cpu.icache.overall_avg_miss_latency::total 50241.192250                       # average overall miss latency
system.cpu.icache.blocked_cycles::no_mshrs           39                       # number of cycles access was blocked
system.cpu.icache.blocked_cycles::no_targets            0                       # number of cycles access was blocked
system.cpu.icache.blocked::no_mshrs                 2                       # number of cycles access was blocked
system.cpu.icache.blocked::no_targets               0                       # number of cycles access was blocked
system.cpu.icache.avg_blocked_cycles::no_mshrs    19.500000                       # average number of cycles each access was blocked
system.cpu.icache.avg_blocked_cycles::no_targets          nan                       # average number of cycles each access was blocked
system.cpu.icache.demand_mshr_hits::.cpu.inst          712                       # number of demand (read+write) MSHR hits
system.cpu.icache.demand_mshr_hits::total          712                       # number of demand (read+write) MSHR hits
system.cpu.icache.overall_mshr_hits::.cpu.inst          712                       # number of overall MSHR hits
system.cpu.icache.overall_mshr_hits::total          712                       # number of overall MSHR hits
system.cpu.icache.demand_mshr_misses::.cpu.inst         2643                       # number of demand (read+write) MSHR misses
system.cpu.icache.demand_mshr_misses::total         2643                       # number of demand (read+write) MSHR misses
system.cpu.icache.overall_mshr_misses::.cpu.inst         2643                       # number of overall MSHR misses
system.cpu.icache.overall_mshr_misses::total         2643                       # number of overall MSHR misses
system.cpu.icache.demand_mshr_miss_latency::.cpu.inst    134700000                       # number of demand (read+write) MSHR miss cycles
system.cpu.icache.demand_mshr_miss_latency::total    134700000                       # number of demand (read+write) MSHR miss cycles
system.cpu.icache.overall_mshr_miss_latency::.cpu.inst    134700000                       # number of overall MSHR miss cycles
system.cpu.icache.overall_mshr_miss_latency::total    134700000                       # number of overall MSHR miss cycles
system.cpu.icache.demand_mshr_miss_rate::.cpu.inst     0.010232                       # mshr miss rate for demand accesses
system.cpu.icache.demand_mshr_miss_rate::total     0.010232                       # mshr miss rate for demand accesses
system.cpu.icache.overall_mshr_miss_rate::.cpu.inst     0.010232                       # mshr miss rate for overall accesses
system.cpu.icache.overall_mshr_miss_rate::total     0.010232                       # mshr miss rate for overall accesses
system.cpu.icache.demand_avg_mshr_miss_latency::.cpu.inst 50964.812713                       # average overall mshr miss latency
system.cpu.icache.demand_avg_mshr_miss_latency::total 50964.812713                       # average overall mshr miss latency
system.cpu.icache.overall_avg_mshr_miss_latency::.cpu.inst 50964.812713                       # average overall mshr miss latency
system.cpu.icache.overall_avg_mshr_miss_latency::total 50964.812713                       # average overall mshr miss latency
system.cpu.icache.replacements                   2386                       # number of replacements
system.cpu.icache.ReadReq_hits::.cpu.inst       254964                       # number of ReadReq hits
system.cpu.icache.ReadReq_hits::total          254964                       # number of ReadReq hits
system.cpu.icache.ReadReq_misses::.cpu.inst         3355                       # number of ReadReq misses
system.cpu.icache.ReadReq_misses::total          3355                       # number of ReadReq misses
system.cpu.icache.ReadReq_miss_latency::.cpu.inst    168559200                       # number of ReadReq miss cycles
system.cpu.icache.ReadReq_miss_latency::total    168559200                       # number of ReadReq miss cycles
system.cpu.icache.ReadReq_accesses::.cpu.inst       258319                       # number of ReadReq accesses(hits+misses)
system.cpu.icache.ReadReq_accesses::total       258319                       # number of ReadReq accesses(hits+misses)
system.cpu.icache.ReadReq_miss_rate::.cpu.inst     0.012988                       # miss rate for ReadReq accesses
system.cpu.icache.ReadReq_miss_rate::total     0.012988                       # miss rate for ReadReq accesses
system.cpu.icache.ReadReq_avg_miss_latency::.cpu.inst 50241.192250                       # average ReadReq miss latency
system.cpu.icache.ReadReq_avg_miss_latency::total 50241.192250                       # average ReadReq miss latency
system.cpu.icache.ReadReq_mshr_hits::.cpu.inst          712                       # number of ReadReq MSHR hits
system.cpu.icache.ReadReq_mshr_hits::total          712                       # number of ReadReq MSHR hits
system.cpu.icache.ReadReq_mshr_misses::.cpu.inst         2643                       # number of ReadReq MSHR misses
system.cpu.icache.ReadReq_mshr_misses::total         2643                       # number of ReadReq MSHR misses
system.cpu.icache.ReadReq_mshr_miss_latency::.cpu.inst    134700000                       # number of ReadReq MSHR miss cycles
system.cpu.icache.ReadReq_mshr_miss_latency::total    134700000                       # number of ReadReq MSHR miss cycles
system.cpu.icache.ReadReq_mshr_miss_rate::.cpu.inst     0.010232                       # mshr miss rate for ReadReq accesses
system.cpu.icache.ReadReq_mshr_miss_rate::total     0.010232                       # mshr miss rate for ReadReq accesses
system.cpu.icache.ReadReq_avg_mshr_miss_latency::.cpu.inst 50964.812713                       # average ReadReq mshr miss latency
system.cpu.icache.ReadReq_avg_mshr_miss_latency::total 50964.812713                       # average ReadReq mshr miss latency
system.cpu.icache.prefetcher.pwrStateResidencyTicks::UNDEFINED   1152530400                       # Cumulative time (in ticks) in various power states
system.cpu.icache.tags.pwrStateResidencyTicks::UNDEFINED   1152530400                       # Cumulative time (in ticks) in various power states
system.cpu.icache.tags.tagsinuse           253.603712                       # Cycle average of tags in use
system.cpu.icache.tags.total_refs              210663                       # Total number of references to valid blocks.
system.cpu.icache.tags.sampled_refs              2387                       # Sample count of references to valid blocks.
system.cpu.icache.tags.avg_refs             88.254294                       # Average number of references to valid blocks.
system.cpu.icache.tags.warmup_cycle             66400                       # Cycle when the warmup percentage was hit.
system.cpu.icache.tags.occ_blocks::.cpu.inst   253.603712                       # Average occupied blocks per requestor
system.cpu.icache.tags.occ_percent::.cpu.inst     0.990639                       # Average percentage of cache occupancy
system.cpu.icache.tags.occ_percent::total     0.990639                       # Average percentage of cache occupancy
system.cpu.icache.tags.occ_task_id_blocks::1024          256                       # Occupied blocks per task id
system.cpu.icache.tags.age_task_id_blocks_1024::0           82                       # Occupied blocks per task id
system.cpu.icache.tags.age_task_id_blocks_1024::1           84                       # Occupied blocks per task id
system.cpu.icache.tags.age_task_id_blocks_1024::2           82                       # Occupied blocks per task id
system.cpu.icache.tags.age_task_id_blocks_1024::3            8                       # Occupied blocks per task id
system.cpu.icache.tags.occ_task_id_percent::1024            1                       # Percentage of cache occupancy per task id
system.cpu.icache.tags.tag_accesses            519281                       # Number of tag accesses
system.cpu.icache.tags.data_accesses           519281                       # Number of data accesses
system.cpu.dtb.walker.pwrStateResidencyTicks::UNDEFINED   1152530400                       # Cumulative time (in ticks) in various power states
system.cpu.interrupts.clk_domain.clock           6400                       # Clock period in ticks
system.cpu.itb.walker.pwrStateResidencyTicks::UNDEFINED   1152530400                       # Cumulative time (in ticks) in various power states
system.cpu.dcache.pwrStateResidencyTicks::UNDEFINED   1152530400                       # Cumulative time (in ticks) in various power states
system.cpu.dcache.demand_hits::.cpu.data       706756                       # number of demand (read+write) hits
system.cpu.dcache.demand_hits::total           706756                       # number of demand (read+write) hits
system.cpu.dcache.overall_hits::.cpu.data       706756                       # number of overall hits
system.cpu.dcache.overall_hits::total          706756                       # number of overall hits
system.cpu.dcache.demand_misses::.cpu.data        35662                       # number of demand (read+write) misses
system.cpu.dcache.demand_misses::total          35662                       # number of demand (read+write) misses
system.cpu.dcache.overall_misses::.cpu.data        35662                       # number of overall misses
system.cpu.dcache.overall_misses::total         35662                       # number of overall misses
system.cpu.dcache.demand_miss_latency::.cpu.data   1729482800                       # number of demand (read+write) miss cycles
system.cpu.dcache.demand_miss_latency::total   1729482800                       # number of demand (read+write) miss cycles
system.cpu.dcache.overall_miss_latency::.cpu.data   1729482800                       # number of overall miss cycles
system.cpu.dcache.overall_miss_latency::total   1729482800                       # number of overall miss cycles
system.cpu.dcache.demand_accesses::.cpu.data       742418                       # number of demand (read+write) accesses
system.cpu.dcache.demand_accesses::total       742418                       # number of demand (read+write) accesses
system.cpu.dcache.overall_accesses::.cpu.data       742418                       # number of overall (read+write) accesses
system.cpu.dcache.overall_accesses::total       742418                       # number of overall (read+write) accesses
system.cpu.dcache.demand_miss_rate::.cpu.data     0.048035                       # miss rate for demand accesses
system.cpu.dcache.demand_miss_rate::total     0.048035                       # miss rate for demand accesses
system.cpu.dcache.overall_miss_rate::.cpu.data     0.048035                       # miss rate for overall accesses
system.cpu.dcache.overall_miss_rate::total     0.048035                       # miss rate for overall accesses
system.cpu.dcache.demand_avg_miss_latency::.cpu.data 48496.517301                       # average overall miss latency
system.cpu.dcache.demand_avg_miss_latency::total 48496.517301                       # average overall miss latency
system.cpu.dcache.overall_avg_miss_latency::.cpu.data 48496.517301                       # average overall miss latency
system.cpu.dcache.overall_avg_miss_latency::total 48496.517301                       # average overall miss latency
system.cpu.dcache.blocked_cycles::no_mshrs        30011                       # number of cycles access was blocked
system.cpu.dcache.blocked_cycles::no_targets          108                       # number of cycles access was blocked
system.cpu.dcache.blocked::no_mshrs               799                       # number of cycles access was blocked
system.cpu.dcache.blocked::no_targets               1                       # number of cycles access was blocked
system.cpu.dcache.avg_blocked_cycles::no_mshrs    37.560701                       # average number of cycles each access was blocked
system.cpu.dcache.avg_blocked_cycles::no_targets          108                       # average number of cycles each access was blocked
system.cpu.dcache.unused_prefetches              1935                       # number of HardPF blocks evicted w/o reference
system.cpu.dcache.writebacks::.writebacks         3000                       # number of writebacks
system.cpu.dcache.writebacks::total              3000                       # number of writebacks
system.cpu.dcache.demand_mshr_hits::.cpu.data        22595                       # number of demand (read+write) MSHR hits
system.cpu.dcache.demand_mshr_hits::total        22595                       # number of demand (read+write) MSHR hits
system.cpu.dcache.overall_mshr_hits::.cpu.data        22595                       # number of overall MSHR hits
system.cpu.dcache.overall_mshr_hits::total        22595                       # number of overall MSHR hits
system.cpu.dcache.demand_mshr_misses::.cpu.data        13067                       # number of demand (read+write) MSHR misses
system.cpu.dcache.demand_mshr_misses::total        13067                       # number of demand (read+write) MSHR misses
system.cpu.dcache.overall_mshr_misses::.cpu.data        13067                       # number of overall MSHR misses
system.cpu.dcache.overall_mshr_misses::.cpu.dcache.prefetcher         4688                       # number of overall MSHR misses
system.cpu.dcache.overall_mshr_misses::total        17755                       # number of overall MSHR misses
system.cpu.dcache.demand_mshr_miss_latency::.cpu.data    605808400                       # number of demand (read+write) MSHR miss cycles
system.cpu.dcache.demand_mshr_miss_latency::total    605808400                       # number of demand (read+write) MSHR miss cycles
system.cpu.dcache.overall_mshr_miss_latency::.cpu.data    605808400                       # number of overall MSHR miss cycles
system.cpu.dcache.overall_mshr_miss_latency::.cpu.dcache.prefetcher    254560647                       # number of overall MSHR miss cycles
system.cpu.dcache.overall_mshr_miss_latency::total    860369047                       # number of overall MSHR miss cycles
system.cpu.dcache.demand_mshr_miss_rate::.cpu.data     0.017601                       # mshr miss rate for demand accesses
system.cpu.dcache.demand_mshr_miss_rate::total     0.017601                       # mshr miss rate for demand accesses
system.cpu.dcache.overall_mshr_miss_rate::.cpu.data     0.017601                       # mshr miss rate for overall accesses
system.cpu.dcache.overall_mshr_miss_rate::.cpu.dcache.prefetcher          inf                       # mshr miss rate for overall accesses
system.cpu.dcache.overall_mshr_miss_rate::total     0.023915                       # mshr miss rate for overall accesses
system.cpu.dcache.demand_avg_mshr_miss_latency::.cpu.data 46361.705059                       # average overall mshr miss latency
system.cpu.dcache.demand_avg_mshr_miss_latency::total 46361.705059                       # average overall mshr miss latency
system.cpu.dcache.overall_avg_mshr_miss_latency::.cpu.data 46361.705059                       # average overall mshr miss latency
system.cpu.dcache.overall_avg_mshr_miss_latency::.cpu.dcache.prefetcher 54300.479309                       # average overall mshr miss latency
system.cpu.dcache.overall_avg_mshr_miss_latency::total 48457.845508                       # average overall mshr miss latency
system.cpu.dcache.replacements                  16730                       # number of replacements
system.cpu.dcache.ReadReq_hits::.cpu.data       524327                       # number of ReadReq hits
system.cpu.dcache.ReadReq_hits::total          524327                       # number of ReadReq hits
system.cpu.dcache.ReadReq_misses::.cpu.data        33222                       # number of ReadReq misses
system.cpu.dcache.ReadReq_misses::total         33222                       # number of ReadReq misses
system.cpu.dcache.ReadReq_miss_latency::.cpu.data   1602563600                       # number of ReadReq miss cycles
system.cpu.dcache.ReadReq_miss_latency::total   1602563600                       # number of ReadReq miss cycles
system.cpu.dcache.ReadReq_accesses::.cpu.data       557549                       # number of ReadReq accesses(hits+misses)
system.cpu.dcache.ReadReq_accesses::total       557549                       # number of ReadReq accesses(hits+misses)
system.cpu.dcache.ReadReq_miss_rate::.cpu.data     0.059586                       # miss rate for ReadReq accesses
system.cpu.dcache.ReadReq_miss_rate::total     0.059586                       # miss rate for ReadReq accesses
system.cpu.dcache.ReadReq_avg_miss_latency::.cpu.data 48238.022997                       # average ReadReq miss latency
system.cpu.dcache.ReadReq_avg_miss_latency::total 48238.022997                       # average ReadReq miss latency
system.cpu.dcache.ReadReq_mshr_hits::.cpu.data        22573                       # number of ReadReq MSHR hits
system.cpu.dcache.ReadReq_mshr_hits::total        22573                       # number of ReadReq MSHR hits
system.cpu.dcache.ReadReq_mshr_misses::.cpu.data        10649                       # number of ReadReq MSHR misses
system.cpu.dcache.ReadReq_mshr_misses::total        10649                       # number of ReadReq MSHR misses
system.cpu.dcache.ReadReq_mshr_miss_latency::.cpu.data    481833600                       # number of ReadReq MSHR miss cycles
system.cpu.dcache.ReadReq_mshr_miss_latency::total    481833600                       # number of ReadReq MSHR miss cycles
system.cpu.dcache.ReadReq_mshr_miss_rate::.cpu.data     0.019100                       # mshr miss rate for ReadReq accesses
system.cpu.dcache.ReadReq_mshr_miss_rate::total     0.019100                       # mshr miss rate for ReadReq accesses
system.cpu.dcache.ReadReq_avg_mshr_miss_latency::.cpu.data 45246.840079                       # average ReadReq mshr miss latency
system.cpu.dcache.ReadReq_avg_mshr_miss_latency::total 45246.840079                       # average ReadReq mshr miss latency
system.cpu.dcache.WriteReq_hits::.cpu.data       182429                       # number of WriteReq hits
system.cpu.dcache.WriteReq_hits::total         182429                       # number of WriteReq hits
system.cpu.dcache.WriteReq_misses::.cpu.data         2440                       # number of WriteReq misses
system.cpu.dcache.WriteReq_misses::total         2440                       # number of WriteReq misses
system.cpu.dcache.WriteReq_miss_latency::.cpu.data    126919200                       # number of WriteReq miss cycles
system.cpu.dcache.WriteReq_miss_latency::total    126919200                       # number of WriteReq miss cycles
system.cpu.dcache.WriteReq_accesses::.cpu.data       184869                       # number of WriteReq accesses(hits+misses)
system.cpu.dcache.WriteReq_accesses::total       184869                       # number of WriteReq accesses(hits+misses)
system.cpu.dcache.WriteReq_miss_rate::.cpu.data     0.013199                       # miss rate for WriteReq accesses
system.cpu.dcache.WriteReq_miss_rate::total     0.013199                       # miss rate for WriteReq accesses
system.cpu.dcache.WriteReq_avg_miss_latency::.cpu.data 52016.065574                       # average WriteReq miss latency
system.cpu.dcache.WriteReq_avg_miss_latency::total 52016.065574                       # average WriteReq miss latency
system.cpu.dcache.WriteReq_mshr_hits::.cpu.data           22                       # number of WriteReq MSHR hits
system.cpu.dcache.WriteReq_mshr_hits::total           22                       # number of WriteReq MSHR hits
system.cpu.dcache.WriteReq_mshr_misses::.cpu.data         2418                       # number of WriteReq MSHR misses
[...]
system.l2cache.demand_mshr_miss_rate::.cpu.data     0.019697                       # mshr miss rate for demand accesses
system.l2cache.demand_mshr_miss_rate::.cpu.dcache.prefetcher     0.232877                       # mshr miss rate for demand accesses
system.l2cache.demand_mshr_miss_rate::total     0.001431                       # mshr miss rate for demand accesses
system.l2cache.overall_mshr_miss_rate::.cpu.inst     0.000939                       # mshr miss rate for overall accesses
system.l2cache.overall_mshr_miss_rate::.cpu.data     0.019697                       # mshr miss rate for overall accesses
system.l2cache.overall_mshr_miss_rate::.cpu.dcache.prefetcher     0.232877                       # mshr miss rate for overall accesses
system.l2cache.overall_mshr_miss_rate::.l2cache.prefetcher          inf                       # mshr miss rate for overall accesses
system.l2cache.overall_mshr_miss_rate::total     0.001437                       # mshr miss rate for overall accesses
system.l2cache.demand_avg_mshr_miss_latency::.cpu.inst 60159.159159                       # average overall mshr miss latency
system.l2cache.demand_avg_mshr_miss_latency::.cpu.data 62492.307692                       # average overall mshr miss latency
system.l2cache.demand_avg_mshr_miss_latency::.cpu.dcache.prefetcher 60629.552941                       # average overall mshr miss latency
system.l2cache.demand_avg_mshr_miss_latency::total 60841.188042                       # average overall mshr miss latency
system.l2cache.overall_avg_mshr_miss_latency::.cpu.inst 60159.159159                       # average overall mshr miss latency
system.l2cache.overall_avg_mshr_miss_latency::.cpu.data 62492.307692                       # average overall mshr miss latency
system.l2cache.overall_avg_mshr_miss_latency::.cpu.dcache.prefetcher 60629.552941                       # average overall mshr miss latency
system.l2cache.overall_avg_mshr_miss_latency::.l2cache.prefetcher 54598.750000                       # average overall mshr miss latency
system.l2cache.overall_avg_mshr_miss_latency::total 60817.201729                       # average overall mshr miss latency
system.l2cache.replacements                      1064                       # number of replacements
system.l2cache.WritebackDirty_hits::.writebacks        14430                       # number of WritebackDirty hits
system.l2cache.WritebackDirty_hits::total        14430                       # number of WritebackDirty hits
system.l2cache.WritebackDirty_accesses::.writebacks        14430                       # number of WritebackDirty accesses(hits+misses)
system.l2cache.WritebackDirty_accesses::total        14430                       # number of WritebackDirty accesses(hits+misses)
system.l2cache.CleanEvict_mshr_misses::.writebacks           17                       # number of CleanEvict MSHR misses
system.l2cache.CleanEvict_mshr_misses::total           17                       # number of CleanEvict MSHR misses
system.l2cache.CleanEvict_mshr_miss_rate::.writebacks          inf                       # mshr miss rate for CleanEvict accesses
system.l2cache.CleanEvict_mshr_miss_rate::total          inf                       # mshr miss rate for CleanEvict accesses
system.l2cache.HardPFReq_mshr_misses::.l2cache.prefetcher            4                       # number of HardPFReq MSHR misses
system.l2cache.HardPFReq_mshr_misses::total            4                       # number of HardPFReq MSHR misses
system.l2cache.HardPFReq_mshr_miss_latency::.l2cache.prefetcher       218395                       # number of HardPFReq MSHR miss cycles
system.l2cache.HardPFReq_mshr_miss_latency::total       218395                       # number of HardPFReq MSHR miss cycles
system.l2cache.HardPFReq_mshr_miss_rate::.l2cache.prefetcher          inf                       # mshr miss rate for HardPFReq accesses
system.l2cache.HardPFReq_mshr_miss_rate::total          inf                       # mshr miss rate for HardPFReq accesses
system.l2cache.HardPFReq_avg_mshr_miss_latency::.l2cache.prefetcher 54598.750000                       # average HardPFReq mshr miss latency
system.l2cache.HardPFReq_avg_mshr_miss_latency::total 54598.750000                       # average HardPFReq mshr miss latency
system.l2cache.ReadExReq_hits::.cpu.data        11534                       # number of ReadExReq hits
system.l2cache.ReadExReq_hits::total            11534                       # number of ReadExReq hits
system.l2cache.ReadExReq_misses::.cpu.data           33                       # number of ReadExReq misses
system.l2cache.ReadExReq_misses::total             33                       # number of ReadExReq misses
system.l2cache.ReadExReq_miss_latency::.cpu.data      2421200                       # number of ReadExReq miss cycles
system.l2cache.ReadExReq_miss_latency::total      2421200                       # number of ReadExReq miss cycles
system.l2cache.ReadExReq_accesses::.cpu.data        11567                       # number of ReadExReq accesses(hits+misses)
system.l2cache.ReadExReq_accesses::total        11567                       # number of ReadExReq accesses(hits+misses)
system.l2cache.ReadExReq_miss_rate::.cpu.data     0.002853                       # miss rate for ReadExReq accesses
system.l2cache.ReadExReq_miss_rate::total     0.002853                       # miss rate for ReadExReq accesses
system.l2cache.ReadExReq_avg_miss_latency::.cpu.data 73369.696970                       # average ReadExReq miss latency
system.l2cache.ReadExReq_avg_miss_latency::total 73369.696970                       # average ReadExReq miss latency
system.l2cache.ReadExReq_mshr_misses::.cpu.data           33                       # number of ReadExReq MSHR misses
system.l2cache.ReadExReq_mshr_misses::total           33                       # number of ReadExReq MSHR misses
system.l2cache.ReadExReq_mshr_miss_latency::.cpu.data      2157200                       # number of ReadExReq MSHR miss cycles
system.l2cache.ReadExReq_mshr_miss_latency::total      2157200                       # number of ReadExReq MSHR miss cycles
system.l2cache.ReadExReq_mshr_miss_rate::.cpu.data     0.002853                       # mshr miss rate for ReadExReq accesses
system.l2cache.ReadExReq_mshr_miss_rate::total     0.002853                       # mshr miss rate for ReadExReq accesses
system.l2cache.ReadExReq_avg_mshr_miss_latency::.cpu.data 65369.696970                       # average ReadExReq mshr miss latency
system.l2cache.ReadExReq_avg_mshr_miss_latency::total 65369.696970                       # average ReadExReq mshr miss latency
system.l2cache.ReadSharedReq_hits::.cpu.inst       708873                       # number of ReadSharedReq hits
system.l2cache.ReadSharedReq_hits::.cpu.data         2699                       # number of ReadSharedReq hits
system.l2cache.ReadSharedReq_hits::.cpu.dcache.prefetcher          280                       # number of ReadSharedReq hits
system.l2cache.ReadSharedReq_hits::total       711852                       # number of ReadSharedReq hits
system.l2cache.ReadSharedReq_misses::.cpu.inst          666                       # number of ReadSharedReq misses
system.l2cache.ReadSharedReq_misses::.cpu.data          254                       # number of ReadSharedReq misses
system.l2cache.ReadSharedReq_misses::.cpu.dcache.prefetcher           85                       # number of ReadSharedReq misses
system.l2cache.ReadSharedReq_misses::total         1005                       # number of ReadSharedReq misses
system.l2cache.ReadSharedReq_miss_latency::.cpu.inst     45394000                       # number of ReadSharedReq miss cycles
system.l2cache.ReadSharedReq_miss_latency::.cpu.data     17796000                       # number of ReadSharedReq miss cycles
system.l2cache.ReadSharedReq_miss_latency::.cpu.dcache.prefetcher      5833512                       # number of ReadSharedReq miss cycles
system.l2cache.ReadSharedReq_miss_latency::total     69023512                       # number of ReadSharedReq miss cycles
system.l2cache.ReadSharedReq_accesses::.cpu.inst       709539                       # number of ReadSharedReq accesses(hits+misses)
system.l2cache.ReadSharedReq_accesses::.cpu.data         2953                       # number of ReadSharedReq accesses(hits+misses)
system.l2cache.ReadSharedReq_accesses::.cpu.dcache.prefetcher          365                       # number of ReadSharedReq accesses(hits+misses)
system.l2cache.ReadSharedReq_accesses::total       712857                       # number of ReadSharedReq accesses(hits+misses)
system.l2cache.ReadSharedReq_miss_rate::.cpu.inst     0.000939                       # miss rate for ReadSharedReq accesses
system.l2cache.ReadSharedReq_miss_rate::.cpu.data     0.086014                       # miss rate for ReadSharedReq accesses
system.l2cache.ReadSharedReq_miss_rate::.cpu.dcache.prefetcher     0.232877                       # miss rate for ReadSharedReq accesses
system.l2cache.ReadSharedReq_miss_rate::total     0.001410                       # miss rate for ReadSharedReq accesses
system.l2cache.ReadSharedReq_avg_miss_latency::.cpu.inst 68159.159159                       # average ReadSharedReq miss latency
system.l2cache.ReadSharedReq_avg_miss_latency::.cpu.data 70062.992126                       # average ReadSharedReq miss latency
system.l2cache.ReadSharedReq_avg_miss_latency::.cpu.dcache.prefetcher 68629.552941                       # average ReadSharedReq miss latency
system.l2cache.ReadSharedReq_avg_miss_latency::total 68680.111443                       # average ReadSharedReq miss latency
system.l2cache.ReadSharedReq_mshr_hits::.cpu.data            1                       # number of ReadSharedReq MSHR hits
system.l2cache.ReadSharedReq_mshr_hits::total            1                       # number of ReadSharedReq MSHR hits
system.l2cache.ReadSharedReq_mshr_misses::.cpu.inst          666                       # number of ReadSharedReq MSHR misses
system.l2cache.ReadSharedReq_mshr_misses::.cpu.data          253                       # number of ReadSharedReq MSHR misses
system.l2cache.ReadSharedReq_mshr_misses::.cpu.dcache.prefetcher           85                       # number of ReadSharedReq MSHR misses
system.l2cache.ReadSharedReq_mshr_misses::total         1004                       # number of ReadSharedReq MSHR misses
system.l2cache.ReadSharedReq_mshr_miss_latency::.cpu.inst     40066000                       # number of ReadSharedReq MSHR miss cycles
system.l2cache.ReadSharedReq_mshr_miss_latency::.cpu.data     15715600                       # number of ReadSharedReq MSHR miss cycles
system.l2cache.ReadSharedReq_mshr_miss_latency::.cpu.dcache.prefetcher      5153512                       # number of ReadSharedReq MSHR miss cycles
system.l2cache.ReadSharedReq_mshr_miss_latency::total     60935112                       # number of ReadSharedReq MSHR miss cycles
system.l2cache.ReadSharedReq_mshr_miss_rate::.cpu.inst     0.000939                       # mshr miss rate for ReadSharedReq accesses
system.l2cache.ReadSharedReq_mshr_miss_rate::.cpu.data     0.085676                       # mshr miss rate for ReadSharedReq accesses
system.l2cache.ReadSharedReq_mshr_miss_rate::.cpu.dcache.prefetcher     0.232877                       # mshr miss rate for ReadSharedReq accesses
system.l2cache.ReadSharedReq_mshr_miss_rate::total     0.001408                       # mshr miss rate for ReadSharedReq accesses
system.l2cache.ReadSharedReq_avg_mshr_miss_latency::.cpu.inst 60159.159159                       # average ReadSharedReq mshr miss latency
system.l2cache.ReadSharedReq_avg_mshr_miss_latency::.cpu.data 62116.996047                       # average ReadSharedReq mshr miss latency
system.l2cache.ReadSharedReq_avg_mshr_miss_latency::.cpu.dcache.prefetcher 60629.552941                       # average ReadSharedReq mshr miss latency
system.l2cache.ReadSharedReq_avg_mshr_miss_latency::total 60692.342629                       # average ReadSharedReq mshr miss latency
system.l2cache.prefetcher.pwrStateResidencyTicks::UNDEFINED  10338676800                       # Cumulative time (in ticks) in various power states
system.l2cache.tags.pwrStateResidencyTicks::UNDEFINED  10338676800                       # Cumulative time (in ticks) in various power states
system.l2cache.tags.tagsinuse                    4096                       # Cycle average of tags in use
system.l2cache.tags.total_refs                1460975                       # Total number of references to valid blocks.
system.l2cache.tags.sampled_refs                 5160                       # Sample count of references to valid blocks.
system.l2cache.tags.avg_refs               283.134690                       # Average number of references to valid blocks.
system.l2cache.tags.warmup_cycle                    0                       # Cycle when the warmup percentage was hit.
system.l2cache.tags.occ_blocks::.writebacks    56.342282                       # Average occupied blocks per requestor
system.l2cache.tags.occ_blocks::.cpu.inst  1248.024149                       # Average occupied blocks per requestor
system.l2cache.tags.occ_blocks::.cpu.data  1786.635279                       # Average occupied blocks per requestor
system.l2cache.tags.occ_blocks::.cpu.dcache.prefetcher   691.675865                       # Average occupied blocks per requestor
system.l2cache.tags.occ_blocks::.l2cache.prefetcher   313.322425                       # Average occupied blocks per requestor
system.l2cache.tags.occ_percent::.writebacks     0.013755                       # Average percentage of cache occupancy
system.l2cache.tags.occ_percent::.cpu.inst     0.304693                       # Average percentage of cache occupancy
system.l2cache.tags.occ_percent::.cpu.data     0.436190                       # Average percentage of cache occupancy
system.l2cache.tags.occ_percent::.cpu.dcache.prefetcher     0.168866                       # Average percentage of cache occupancy
system.l2cache.tags.occ_percent::.l2cache.prefetcher     0.076495                       # Average percentage of cache occupancy
system.l2cache.tags.occ_percent::total              1                       # Average percentage of cache occupancy
system.l2cache.tags.occ_task_id_blocks::1022          952                       # Occupied blocks per task id
system.l2cache.tags.occ_task_id_blocks::1024         3144                       # Occupied blocks per task id
system.l2cache.tags.age_task_id_blocks_1022::0           14                       # Occupied blocks per task id
system.l2cache.tags.age_task_id_blocks_1022::1            2                       # Occupied blocks per task id
system.l2cache.tags.age_task_id_blocks_1022::3           14                       # Occupied blocks per task id
system.l2cache.tags.age_task_id_blocks_1022::4          922                       # Occupied blocks per task id
system.l2cache.tags.age_task_id_blocks_1024::0          183                       # Occupied blocks per task id
system.l2cache.tags.age_task_id_blocks_1024::1           40                       # Occupied blocks per task id
system.l2cache.tags.age_task_id_blocks_1024::3           64                       # Occupied blocks per task id
system.l2cache.tags.age_task_id_blocks_1024::4         2857                       # Occupied blocks per task id
system.l2cache.tags.occ_task_id_percent::1022     0.232422                       # Percentage of cache occupancy per task id
system.l2cache.tags.occ_task_id_percent::1024     0.767578                       # Percentage of cache occupancy per task id
system.l2cache.tags.tag_accesses             11591840                       # Number of tag accesses
system.l2cache.tags.data_accesses            11591840                       # Number of data accesses
system.mem_ctrl.pwrStateResidencyTicks::UNDEFINED  10338676800                       # Cumulative time (in ticks) in various power states
system.mem_ctrl.bytes_read::.cpu.inst           42624                       # Number of bytes read from this memory
system.mem_ctrl.bytes_read::.cpu.data           18304                       # Number of bytes read from this memory
system.mem_ctrl.bytes_read::.cpu.dcache.prefetcher         5440                       # Number of bytes read from this memory
system.mem_ctrl.bytes_read::.l2cache.prefetcher          256                       # Number of bytes read from this memory
system.mem_ctrl.bytes_read::total               66624                       # Number of bytes read from this memory
system.mem_ctrl.bytes_inst_read::.cpu.inst        42624                       # Number of instructions bytes read from this memory
system.mem_ctrl.bytes_inst_read::total          42624                       # Number of instructions bytes read from this memory
system.mem_ctrl.bytes_written::.writebacks         5312                       # Number of bytes written to this memory
system.mem_ctrl.bytes_written::total             5312                       # Number of bytes written to this memory
system.mem_ctrl.num_reads::.cpu.inst              666                       # Number of read requests responded to by this memory
system.mem_ctrl.num_reads::.cpu.data              286                       # Number of read requests responded to by this memory
system.mem_ctrl.num_reads::.cpu.dcache.prefetcher           85                       # Number of read requests responded to by this memory
system.mem_ctrl.num_reads::.l2cache.prefetcher            4                       # Number of read requests responded to by this memory
system.mem_ctrl.num_reads::total                 1041                       # Number of read requests responded to by this memory
system.mem_ctrl.num_writes::.writebacks            83                       # Number of write requests responded to by this memory
system.mem_ctrl.num_writes::total                  83                       # Number of write requests responded to by this memory
system.mem_ctrl.bw_read::.cpu.inst            4122771                       # Total read bandwidth from this memory (bytes/s)
system.mem_ctrl.bw_read::.cpu.data            1770439                       # Total read bandwidth from this memory (bytes/s)
system.mem_ctrl.bw_read::.cpu.dcache.prefetcher       526180                       # Total read bandwidth from this memory (bytes/s)
system.mem_ctrl.bw_read::.l2cache.prefetcher        24761                       # Total read bandwidth from this memory (bytes/s)
system.mem_ctrl.bw_read::total                6444152                       # Total read bandwidth from this memory (bytes/s)
system.mem_ctrl.bw_inst_read::.cpu.inst       4122771                       # Instruction read bandwidth from this memory (bytes/s)
system.mem_ctrl.bw_inst_read::total           4122771                       # Instruction read bandwidth from this memory (bytes/s)
system.mem_ctrl.bw_write::.writebacks          513799                       # Write bandwidth from this memory (bytes/s)
system.mem_ctrl.bw_write::total                513799                       # Write bandwidth from this memory (bytes/s)
system.mem_ctrl.bw_total::.writebacks          513799                       # Total bandwidth to/from this memory (bytes/s)
system.mem_ctrl.bw_total::.cpu.inst           4122771                       # Total bandwidth to/from this memory (bytes/s)
system.mem_ctrl.bw_total::.cpu.data           1770439                       # Total bandwidth to/from this memory (bytes/s)
system.mem_ctrl.bw_total::.cpu.dcache.prefetcher       526180                       # Total bandwidth to/from this memory (bytes/s)
system.mem_ctrl.bw_total::.l2cache.prefetcher        24761                       # Total bandwidth to/from this memory (bytes/s)
system.mem_ctrl.bw_total::total               6957950                       # Total bandwidth to/from this memory (bytes/s)

---------- End Simulation Statistics   ----------
