
---------- Begin Simulation Statistics ----------
final_tick                                 1082117200                       # Number of ticks from beginning of simulation (restored from checkpoints and never reset)
host_inst_rate                                 184811                       # Simulator instruction rate (inst/s)
host_mem_usage                                4402740                       # Number of bytes of host memory used
host_op_rate                                   321029                       # Simulator op (including micro ops) rate (op/s)
host_seconds                                    11.09                       # Real time elapsed on the host
host_tick_rate                               97591207                       # Simulator tick rate (ticks/s)
sim_freq                                 1000000000000                       # Frequency of simulated ticks
sim_insts                                     2049221                       # Number of instructions simulated
sim_ops                                       3559645                       # Number of ops (including micro ops) simulated
sim_seconds                                  0.001082                       # Number of seconds simulated
sim_ticks                                  1082117200                       # Number of ticks simulated
system.cpu.branchPred.BTBCorrect                    0                       # Number of correct BTB predictions (this stat may not work properly.
system.cpu.branchPred.BTBHitPct              0.000000                       # BTB Hit Percentage
system.cpu.branchPred.BTBHits                       0                       # Number of BTB hits
system.cpu.branchPred.BTBLookups               434859                       # Number of BTB lookups
system.cpu.branchPred.RASInCorrect                  5                       # Number of incorrect RAS predictions.
system.cpu.branchPred.condIncorrect             24226                       # Number of conditional branches incorrect
system.cpu.branchPred.condPredicted            461051                       # Number of conditional branches predicted
system.cpu.branchPred.indirectHits             237067                       # Number of indirect target hits.
system.cpu.branchPred.indirectLookups          434859                       # Number of indirect predictor lookups.
system.cpu.branchPred.indirectMisses           197792                       # Number of indirect misses.
system.cpu.branchPred.lookups                  486846                       # Number of BP lookups
system.cpu.branchPred.usedRAS                   11088                       # Number of times the RAS was used to get a target.
system.cpu.branchPredindirectMispredicted        12154                       # Number of mispredicted indirect branches.
system.cpu.cc_regfile_reads                   2351567                       # number of cc regfile reads
system.cpu.cc_regfile_writes                  1927721                       # number of cc regfile writes
system.cpu.commit.amos                              0                       # Number of atomic instructions committed
system.cpu.commit.branchMispredicts             24308                       # The number of times a branch was mispredicted
system.cpu.commit.branches                     341698                       # Number of branches committed
system.cpu.commit.bw_lim_events                590625                       # number cycles where commit BW limit reached
system.cpu.commit.commitNonSpecStalls             732                       # The number of times commit has been forced to stall to communicate backwards
system.cpu.commit.commitSquashedInsts          889238                       # The number of squashed insts skipped by commit
system.cpu.commit.committedInsts              2049221                       # Number of instructions committed
system.cpu.commit.committedOps                3559645                       # Number of ops (including micro ops) committed
system.cpu.commit.committed_per_cycle::samples      2314226                       # Number of insts commited each cycle
system.cpu.commit.committed_per_cycle::mean     1.538158                       # Number of insts commited each cycle
system.cpu.commit.committed_per_cycle::stdev     1.723505                       # Number of insts commited each cycle
system.cpu.commit.committed_per_cycle::underflows            0      0.00%      0.00% # Number of insts commited each cycle
system.cpu.commit.committed_per_cycle::0      1150269     49.70%     49.70% # Number of insts commited each cycle
system.cpu.commit.committed_per_cycle::1       176948      7.65%     57.35% # Number of insts commited each cycle
system.cpu.commit.committed_per_cycle::2       168955      7.30%     64.65% # Number of insts commited each cycle
system.cpu.commit.committed_per_cycle::3       227429      9.83%     74.48% # Number of insts commited each cycle
system.cpu.commit.committed_per_cycle::4       590625     25.52%    100.00% # Number of insts commited each cycle
system.cpu.commit.committed_per_cycle::overflows            0      0.00%    100.00% # Number of insts commited each cycle
system.cpu.commit.committed_per_cycle::min_value            0                       # Number of insts commited each cycle
system.cpu.commit.committed_per_cycle::max_value            4                       # Number of insts commited each cycle
system.cpu.commit.committed_per_cycle::total      2314226                       # Number of insts commited each cycle
system.cpu.commit.fp_insts                      72844                       # Number of committed floating point instructions.
system.cpu.commit.function_calls                 9268                       # Number of function calls committed.
system.cpu.commit.int_insts                   3505479                       # Number of committed integer instructions.
system.cpu.commit.loads                        487426                       # Number of loads committed
system.cpu.commit.membars                           1                       # Number of memory barriers committed
system.cpu.commit.op_class_0::No_OpClass        20165      0.57%      0.57% # Class of committed instruction
system.cpu.commit.op_class_0::IntAlu          2802395     78.73%     79.29% # Class of committed instruction
system.cpu.commit.op_class_0::IntMult            1531      0.04%     79.34% # Class of committed instruction
system.cpu.commit.op_class_0::IntDiv            37816      1.06%     80.40% # Class of committed instruction
system.cpu.commit.op_class_0::FloatAdd           2834      0.08%     80.48% # Class of committed instruction
system.cpu.commit.op_class_0::FloatCmp              0      0.00%     80.48% # Class of committed instruction
system.cpu.commit.op_class_0::FloatCvt           1200      0.03%     80.51% # Class of committed instruction
system.cpu.commit.op_class_0::FloatMult             0      0.00%     80.51% # Class of committed instruction
system.cpu.commit.op_class_0::FloatMultAcc            0      0.00%     80.51% # Class of committed instruction
system.cpu.commit.op_class_0::FloatDiv              0      0.00%     80.51% # Class of committed instruction
system.cpu.commit.op_class_0::FloatMisc             0      0.00%     80.51% # Class of committed instruction
system.cpu.commit.op_class_0::FloatSqrt             0      0.00%     80.51% # Class of committed instruction
system.cpu.commit.op_class_0::SimdAdd            6184      0.17%     80.69% # Class of committed instruction
system.cpu.commit.op_class_0::SimdAddAcc            0      0.00%     80.69% # Class of committed instruction
system.cpu.commit.op_class_0::SimdAlu           11116      0.31%     81.00% # Class of committed instruction
system.cpu.commit.op_class_0::SimdCmp               0      0.00%     81.00% # Class of committed instruction
system.cpu.commit.op_class_0::SimdCvt           12050      0.34%     81.34% # Class of committed instruction
system.cpu.commit.op_class_0::SimdMisc           6479      0.18%     81.52% # Class of committed instruction
system.cpu.commit.op_class_0::SimdMult              0      0.00%     81.52% # Class of committed instruction
system.cpu.commit.op_class_0::SimdMultAcc            0      0.00%     81.52% # Class of committed instruction
system.cpu.commit.op_class_0::SimdShift          1055      0.03%     81.55% # Class of committed instruction
system.cpu.commit.op_class_0::SimdShiftAcc            0      0.00%     81.55% # Class of committed instruction
system.cpu.commit.op_class_0::SimdDiv               0      0.00%     81.55% # Class of committed instruction
system.cpu.commit.op_class_0::SimdSqrt              0      0.00%     81.55% # Class of committed instruction
system.cpu.commit.op_class_0::SimdFloatAdd            0      0.00%     81.55% # Class of committed instruction
system.cpu.commit.op_class_0::SimdFloatAlu            0      0.00%     81.55% # Class of committed instruction
system.cpu.commit.op_class_0::SimdFloatCmp            0      0.00%     81.55% # Class of committed instruction
system.cpu.commit.op_class_0::SimdFloatCvt            0      0.00%     81.55% # Class of committed instruction
system.cpu.commit.op_class_0::SimdFloatDiv            0      0.00%     81.55% # Class of committed instruction
system.cpu.commit.op_class_0::SimdFloatMisc            0      0.00%     81.55% # Class of committed instruction
system.cpu.commit.op_class_0::SimdFloatMult            0      0.00%     81.55% # Class of committed instruction
system.cpu.commit.op_class_0::SimdFloatMultAcc            0      0.00%     81.55% # Class of committed instruction
system.cpu.commit.op_class_0::SimdFloatSqrt            0      0.00%     81.55% # Class of committed instruction
system.cpu.commit.op_class_0::SimdReduceAdd            0      0.00%     81.55% # Class of committed instruction
system.cpu.commit.op_class_0::SimdReduceAlu            0      0.00%     81.55% # Class of committed instruction
system.cpu.commit.op_class_0::SimdReduceCmp            0      0.00%     81.55% # Class of committed instruction
system.cpu.commit.op_class_0::SimdFloatReduceAdd            0      0.00%     81.55% # Class of committed instruction
system.cpu.commit.op_class_0::SimdFloatReduceCmp            0      0.00%     81.55% # Class of committed instruction
system.cpu.commit.op_class_0::SimdAes               0      0.00%     81.55% # Class of committed instruction
system.cpu.commit.op_class_0::SimdAesMix            0      0.00%     81.55% # Class of committed instruction
system.cpu.commit.op_class_0::SimdSha1Hash            0      0.00%     81.55% # Class of committed instruction
system.cpu.commit.op_class_0::SimdSha1Hash2            0      0.00%     81.55% # Class of committed instruction
system.cpu.commit.op_class_0::SimdSha256Hash            0      0.00%     81.55% # Class of committed instruction
system.cpu.commit.op_class_0::SimdSha256Hash2            0      0.00%     81.55% # Class of committed instruction
system.cpu.commit.op_class_0::SimdShaSigma2            0      0.00%     81.55% # Class of committed instruction
system.cpu.commit.op_class_0::SimdShaSigma3            0      0.00%     81.55% # Class of committed instruction
system.cpu.commit.op_class_0::SimdPredAlu            0      0.00%     81.55% # Class of committed instruction
system.cpu.commit.op_class_0::MemRead          468388     13.16%     94.71% # Class of committed instruction
system.cpu.commit.op_class_0::MemWrite         157325      4.42%     99.13% # Class of committed instruction
system.cpu.commit.op_class_0::FloatMemRead        19038      0.53%     99.66% # Class of committed instruction
system.cpu.commit.op_class_0::FloatMemWrite        12069      0.34%    100.00% # Class of committed instruction
system.cpu.commit.op_class_0::IprAccess             0      0.00%    100.00% # Class of committed instruction
system.cpu.commit.op_class_0::InstPrefetch            0      0.00%    100.00% # Class of committed instruction
system.cpu.commit.op_class_0::total           3559645                       # Class of committed instruction
system.cpu.commit.refs                         656820                       # Number of memory references committed
system.cpu.commit.swp_count                         0                       # Number of s/w prefetches committed
system.cpu.commit.vec_insts                         0                       # Number of committed Vector instructions.
system.cpu.committedInsts                     2049221                       # Number of Instructions Simulated
system.cpu.committedOps                       3559645                       # Number of Ops (including micro ops) Simulated
system.cpu.cpi                               1.320157                       # CPI: Cycles Per Instruction
system.cpu.cpi_total                         1.320157                       # CPI: Total CPI of All Threads
system.cpu.dcache.prefetcher.num_hwpf_issued         7722                       # number of hwpf issued
system.cpu.dcache.prefetcher.pfBufferHit        33407                       # number of redundant prefetches already in prefetch queue
system.cpu.dcache.prefetcher.pfIdentified        48304                       # number of prefetch candidates identified
system.cpu.dcache.prefetcher.pfInCache              0                       # number of redundant prefetches already in cache/mshr dropped
system.cpu.dcache.prefetcher.pfRemovedFull            0                       # number of prefetches dropped due to prefetch queue size
system.cpu.dcache.prefetcher.pfSpanPage          4352                       # number of prefetches that crossed the page
system.cpu.decode.BlockedCycles               1022177                       # Number of cycles decode is blocked
system.cpu.decode.DecodedInsts                4666036                       # Number of instructions handled by decode
system.cpu.decode.IdleCycles                   289462                       # Number of cycles decode is idle
system.cpu.decode.RunCycles                   1132226                       # Number of cycles decode is running
system.cpu.decode.SquashCycles                  24376                       # Number of cycles decode is squashing
system.cpu.decode.UnblockCycles                 88359                       # Number of cycles decode is unblocking
system.cpu.dtb.rdAccesses                      571411                       # TLB accesses on read requests
system.cpu.dtb.rdMisses                          2028                       # TLB misses on read requests
system.cpu.dtb.wrAccesses                      189586                       # TLB accesses on write requests
system.cpu.dtb.wrMisses                           164                       # TLB misses on write requests
system.cpu.fetch.Branches                      486846                       # Number of branches that fetch encountered
system.cpu.fetch.CacheLines                    238289                       # Number of cache lines fetched
system.cpu.fetch.Cycles                       2206082                       # Number of cycles fetch has run and was not squashing or blocked
system.cpu.fetch.IcacheSquashes                  4608                       # Number of outstanding Icache misses that were squashed
system.cpu.fetch.Insts                        2822927                       # Number of instructions fetch has processed
system.cpu.fetch.MiscStallCycles                  109                       # Number of cycles fetch has spent waiting on interrupts, or bad addresses, or out of MSHRs
system.cpu.fetch.PendingQuiesceStallCycles           10                       # Number of stall cycles due to pending quiesce instructions
system.cpu.fetch.PendingTrapStallCycles           599                       # Number of stall cycles due to pending traps
system.cpu.fetch.SquashCycles                   48752                       # Number of cycles fetch has spent squashing
system.cpu.fetch.branchRate                  0.179960                       # Number of branch fetches per cycle
system.cpu.fetch.icacheStallCycles             325424                       # Number of cycles fetch is stalled on an Icache miss
system.cpu.fetch.predictedBranches             248155                       # Number of branches that fetch has predicted taken
system.cpu.fetch.rate                        1.043483                       # Number of inst fetches per cycle
system.cpu.fetch.rateDist::samples            2556600                       # Number of instructions fetched each cycle (Total)
system.cpu.fetch.rateDist::mean              1.933900                       # Number of instructions fetched each cycle (Total)
system.cpu.fetch.rateDist::stdev             1.931372                       # Number of instructions fetched each cycle (Total)
system.cpu.fetch.rateDist::underflows               0      0.00%      0.00% # Number of instructions fetched each cycle (Total)
system.cpu.fetch.rateDist::0                  1217559     47.62%     47.62% # Number of instructions fetched each cycle (Total)
system.cpu.fetch.rateDist::1                    73556      2.88%     50.50% # Number of instructions fetched each cycle (Total)
system.cpu.fetch.rateDist::2                    57963      2.27%     52.77% # Number of instructions fetched each cycle (Total)
system.cpu.fetch.rateDist::3                    75362      2.95%     55.72% # Number of instructions fetched each cycle (Total)
system.cpu.fetch.rateDist::4                  1132160     44.28%    100.00% # Number of instructions fetched each cycle (Total)
system.cpu.fetch.rateDist::overflows                0      0.00%    100.00% # Number of instructions fetched each cycle (Total)
system.cpu.fetch.rateDist::min_value                0                       # Number of instructions fetched each cycle (Total)
system.cpu.fetch.rateDist::max_value                4                       # Number of instructions fetched each cycle (Total)
system.cpu.fetch.rateDist::total              2556600                       # Number of instructions fetched each cycle (Total)
system.cpu.fp_regfile_reads                    118529                       # number of floating regfile reads
system.cpu.fp_regfile_writes                    64783                       # number of floating regfile writes
system.cpu.fuPool.fu_ticks_busy::IntALU(0)    215631200                       # Total ticks fu was busy
system.cpu.fuPool.fu_ticks_busy::IntALU(1)    215631200                       # Total ticks fu was busy
system.cpu.fuPool.fu_ticks_busy::IntALU(2)    215631200                       # Total ticks fu was busy
system.cpu.fuPool.fu_ticks_busy::IntALU(3)    215631200                       # Total ticks fu was busy
system.cpu.fuPool.fu_ticks_busy::IntALU(4)    215631200                       # Total ticks fu was busy
system.cpu.fuPool.fu_ticks_busy::IntALU(5)    215631200                       # Total ticks fu was busy
system.cpu.fuPool.fu_ticks_busy::IntMultDiv(0)      8685200                       # Total ticks fu was busy
system.cpu.fuPool.fu_ticks_busy::IntMultDiv(1)      8684400                       # Total ticks fu was busy
system.cpu.fuPool.fu_ticks_busy::FP_ALU(0)       550400                       # Total ticks fu was busy
system.cpu.fuPool.fu_ticks_busy::FP_ALU(1)       550400                       # Total ticks fu was busy
system.cpu.fuPool.fu_ticks_busy::FP_ALU(2)       550400                       # Total ticks fu was busy
system.cpu.fuPool.fu_ticks_busy::FP_ALU(3)       550000                       # Total ticks fu was busy
system.cpu.fuPool.fu_ticks_busy::FP_MultDiv(0)            0                       # Total ticks fu was busy
system.cpu.fuPool.fu_ticks_busy::FP_MultDiv(1)            0                       # Total ticks fu was busy
system.cpu.fuPool.fu_ticks_busy::SIMD_Unit(0)      4346800                       # Total ticks fu was busy
system.cpu.fuPool.fu_ticks_busy::SIMD_Unit(1)      4302800                       # Total ticks fu was busy
system.cpu.fuPool.fu_ticks_busy::SIMD_Unit(2)      4511200                       # Total ticks fu was busy
system.cpu.fuPool.fu_ticks_busy::SIMD_Unit(3)      4548400                       # Total ticks fu was busy
system.cpu.fuPool.fu_ticks_busy::PredALU(0)            0                       # Total ticks fu was busy
system.cpu.fuPool.fu_ticks_busy::RdWrPort(0)     77624800                       # Total ticks fu was busy
system.cpu.fuPool.fu_ticks_busy::RdWrPort(1)     77552400                       # Total ticks fu was busy
system.cpu.fuPool.fu_ticks_busy::RdWrPort(2)     77557600                       # Total ticks fu was busy
system.cpu.fuPool.fu_ticks_busy::RdWrPort(3)     77577200                       # Total ticks fu was busy
system.cpu.fuPool.fu_ticks_busy::IprPort(0)            0                       # Total ticks fu was busy
system.cpu.fuPool.fu_ticks_busy::total     1641379200                       # Total ticks fu was busy
system.cpu.icache.prefetcher.num_hwpf_issued            0                       # number of hwpf issued
system.cpu.icache.prefetcher.pfBufferHit            0                       # number of redundant prefetches already in prefetch queue
system.cpu.icache.prefetcher.pfIdentified            0                       # number of prefetch candidates identified
system.cpu.icache.prefetcher.pfInCache              0                       # number of redundant prefetches already in cache/mshr dropped
system.cpu.icache.prefetcher.pfRemovedFull            0                       # number of prefetches dropped due to prefetch queue size
system.cpu.icache.prefetcher.pfSpanPage             0                       # number of prefetches that crossed the page
system.cpu.idleCycles                          148694                       # Total number of cycles that the CPU has spent unscheduled due to idling
system.cpu.iew.branchMispredicts                28712                       # Number of branch mispredicts detected at execute
system.cpu.iew.exec_branches                   372490                       # Number of branches executed
system.cpu.iew.exec_nop                             0                       # number of nop insts executed
system.cpu.iew.exec_rate                     1.513741                       # Inst execution rate
system.cpu.iew.exec_refs                       762725                       # number of memory reference insts executed
system.cpu.iew.exec_stores                     189575                       # Number of stores executed
system.cpu.iew.exec_swp                             0                       # number of swp insts executed
system.cpu.iew.iewBlockCycles                  682738                       # Number of cycles IEW is blocking
system.cpu.iew.iewDispLoadInsts                603713                       # Number of dispatched load instructions
system.cpu.iew.iewDispNonSpecInsts                914                       # Number of dispatched non-speculative instructions
system.cpu.iew.iewDispSquashedInsts               612                       # Number of squashed instructions skipped by dispatch
system.cpu.iew.iewDispStoreInsts               200163                       # Number of dispatched store instructions
system.cpu.iew.iewDispatchedInsts             4448807                       # Number of instructions dispatched to IQ
system.cpu.iew.iewExecLoadInsts                573150                       # Number of load instructions executed
system.cpu.iew.iewExecSquashedInsts             34416                       # Number of squashed instructions skipped in execute
system.cpu.iew.iewExecutedInsts               4095115                       # Number of executed instructions
system.cpu.iew.iewIQFullEvents                   3278                       # Number of times the IQ has become full, causing a stall
system.cpu.iew.iewIdleCycles                        0                       # Number of cycles IEW is idle
system.cpu.iew.iewLSQFullEvents                  9454                       # Number of times the LSQ has become full, causing a stall
system.cpu.iew.iewSquashCycles                  24376                       # Number of cycles IEW is squashing
system.cpu.iew.iewUnblockCycles                 15548                       # Number of cycles IEW is unblocking
system.cpu.iew.lsq.thread0.blockedLoads             0                       # Number of blocked loads due to partial load-store forwarding
system.cpu.iew.lsq.thread0.cacheBlocked           609                       # Number of times an access to memory failed due to the cache being blocked
system.cpu.iew.lsq.thread0.forwLoads            39944                       # Number of loads that had data forwarded from stores
system.cpu.iew.lsq.thread0.ignoredResponses          235                       # Number of memory responses ignored because the instruction is squashed
system.cpu.iew.lsq.thread0.invAddrLoads             0                       # Number of loads ignored due to an invalid address
system.cpu.iew.lsq.thread0.invAddrSwpfs             0                       # Number of software prefetches ignored due to an invalid address
system.cpu.iew.lsq.thread0.memOrderViolation           83                       # Number of memory ordering violations
system.cpu.iew.lsq.thread0.rescheduledLoads            0                       # Number of loads that were rescheduled
system.cpu.iew.lsq.thread0.squashedLoads       116285                       # Number of loads squashed
system.cpu.iew.lsq.thread0.squashedStores        30768                       # Number of stores squashed
system.cpu.iew.memOrderViolationEvents             83                       # Number of memory order violations
system.cpu.iew.predictedNotTakenIncorrect        20592                       # Number of branches that were predicted not taken incorrectly
system.cpu.iew.predictedTakenIncorrect           8120                       # Number of branches that were predicted taken incorrectly
system.cpu.iew.wb_consumers                   5751589                       # num instructions consuming a value
system.cpu.iew.wb_count                       4073156                       # cumulative count of insts written-back
system.cpu.iew.wb_fanout                     0.566261                       # average fanout of values written-back
system.cpu.iew.wb_producers                   3256898                       # num instructions producing a value
system.cpu.iew.wb_rate                       1.505624                       # insts written-back per cycle
system.cpu.iew.wb_sent                        4080064                       # cumulative count of insts sent to commit
system.cpu.int_regfile_reads                  6348403                       # number of integer regfile reads
system.cpu.int_regfile_writes                 3523439                       # number of integer regfile writes
system.cpu.ipc                               0.757486                       # IPC: Instructions Per Cycle
system.cpu.ipc_total                         0.757486                       # IPC: Total IPC of All Threads
system.cpu.iq.FU_type_0::No_OpClass             26083      0.63%      0.63% # Type of FU issued
system.cpu.iq.FU_type_0::IntAlu               3234469     78.33%     78.96% # Type of FU issued
system.cpu.iq.FU_type_0::IntMult                 1553      0.04%     78.99% # Type of FU issued
system.cpu.iq.FU_type_0::IntDiv                 41871      1.01%     80.01% # Type of FU issued
system.cpu.iq.FU_type_0::FloatAdd                4263      0.10%     80.11% # Type of FU issued
system.cpu.iq.FU_type_0::FloatCmp                   0      0.00%     80.11% # Type of FU issued
system.cpu.iq.FU_type_0::FloatCvt                1240      0.03%     80.14% # Type of FU issued
system.cpu.iq.FU_type_0::FloatMult                  0      0.00%     80.14% # Type of FU issued
system.cpu.iq.FU_type_0::FloatMultAcc               0      0.00%     80.14% # Type of FU issued
system.cpu.iq.FU_type_0::FloatDiv                   0      0.00%     80.14% # Type of FU issued
system.cpu.iq.FU_type_0::FloatMisc                  0      0.00%     80.14% # Type of FU issued
system.cpu.iq.FU_type_0::FloatSqrt                  0      0.00%     80.14% # Type of FU issued
system.cpu.iq.FU_type_0::SimdAdd                 6788      0.16%     80.31% # Type of FU issued
system.cpu.iq.FU_type_0::SimdAddAcc                 0      0.00%     80.31% # Type of FU issued
system.cpu.iq.FU_type_0::SimdAlu                14780      0.36%     80.66% # Type of FU issued
system.cpu.iq.FU_type_0::SimdCmp                    0      0.00%     80.66% # Type of FU issued
system.cpu.iq.FU_type_0::SimdCvt                13669      0.33%     80.99% # Type of FU issued
system.cpu.iq.FU_type_0::SimdMisc                7034      0.17%     81.17% # Type of FU issued
system.cpu.iq.FU_type_0::SimdMult                   0      0.00%     81.17% # Type of FU issued
system.cpu.iq.FU_type_0::SimdMultAcc                0      0.00%     81.17% # Type of FU issued
system.cpu.iq.FU_type_0::SimdShift               2002      0.05%     81.21% # Type of FU issued
system.cpu.iq.FU_type_0::SimdShiftAcc               0      0.00%     81.21% # Type of FU issued
system.cpu.iq.FU_type_0::SimdDiv                    0      0.00%     81.21% # Type of FU issued
system.cpu.iq.FU_type_0::SimdSqrt                   0      0.00%     81.21% # Type of FU issued
system.cpu.iq.FU_type_0::SimdFloatAdd               0      0.00%     81.21% # Type of FU issued
system.cpu.iq.FU_type_0::SimdFloatAlu               0      0.00%     81.21% # Type of FU issued
system.cpu.iq.FU_type_0::SimdFloatCmp               0      0.00%     81.21% # Type of FU issued
system.cpu.iq.FU_type_0::SimdFloatCvt               0      0.00%     81.21% # Type of FU issued
system.cpu.iq.FU_type_0::SimdFloatDiv               0      0.00%     81.21% # Type of FU issued
system.cpu.iq.FU_type_0::SimdFloatMisc              0      0.00%     81.21% # Type of FU issued
system.cpu.iq.FU_type_0::SimdFloatMult              0      0.00%     81.21% # Type of FU issued
system.cpu.iq.FU_type_0::SimdFloatMultAcc            0      0.00%     81.21% # Type of FU issued
system.cpu.iq.FU_type_0::SimdFloatSqrt              0      0.00%     81.21% # Type of FU issued
system.cpu.iq.FU_type_0::SimdReduceAdd              0      0.00%     81.21% # Type of FU issued
system.cpu.iq.FU_type_0::SimdReduceAlu              0      0.00%     81.21% # Type of FU issued
system.cpu.iq.FU_type_0::SimdReduceCmp              0      0.00%     81.21% # Type of FU issued
system.cpu.iq.FU_type_0::SimdFloatReduceAdd            0      0.00%     81.21% # Type of FU issued
system.cpu.iq.FU_type_0::SimdFloatReduceCmp            0      0.00%     81.21% # Type of FU issued
system.cpu.iq.FU_type_0::SimdAes                    0      0.00%     81.21% # Type of FU issued
system.cpu.iq.FU_type_0::SimdAesMix                 0      0.00%     81.21% # Type of FU issued
system.cpu.iq.FU_type_0::SimdSha1Hash               0      0.00%     81.21% # Type of FU issued
system.cpu.iq.FU_type_0::SimdSha1Hash2              0      0.00%     81.21% # Type of FU issued
system.cpu.iq.FU_type_0::SimdSha256Hash             0      0.00%     81.21% # Type of FU issued
system.cpu.iq.FU_type_0::SimdSha256Hash2            0      0.00%     81.21% # Type of FU issued
system.cpu.iq.FU_type_0::SimdShaSigma2              0      0.00%     81.21% # Type of FU issued
system.cpu.iq.FU_type_0::SimdShaSigma3              0      0.00%     81.21% # Type of FU issued
system.cpu.iq.FU_type_0::SimdPredAlu                0      0.00%     81.21% # Type of FU issued
system.cpu.iq.FU_type_0::MemRead               559050     13.54%     94.75% # Type of FU issued
system.cpu.iq.FU_type_0::MemWrite              178586      4.32%     99.08% # Type of FU issued
system.cpu.iq.FU_type_0::FloatMemRead           24467      0.59%     99.67% # Type of FU issued
system.cpu.iq.FU_type_0::FloatMemWrite          13679      0.33%    100.00% # Type of FU issued
system.cpu.iq.FU_type_0::IprAccess                  0      0.00%    100.00% # Type of FU issued
system.cpu.iq.FU_type_0::InstPrefetch               0      0.00%    100.00% # Type of FU issued
system.cpu.iq.FU_type_0::total                4129534                       # Type of FU issued
system.cpu.iq.fp_alu_accesses                   88884                       # Number of floating point alu accesses
system.cpu.iq.fp_inst_queue_reads              179027                       # Number of floating instruction queue reads
system.cpu.iq.fp_inst_queue_wakeup_accesses        85736                       # Number of floating instruction queue wakeup accesses
system.cpu.iq.fp_inst_queue_writes             127424                       # Number of floating instruction queue writes
system.cpu.iq.fu_busy_cnt                           0                       # FU busy when requested
system.cpu.iq.fu_busy_rate                          0                       # FU busy rate (busy events/executed inst)
system.cpu.iq.fu_full::No_OpClass                   0                       # attempts to use FU when none available
system.cpu.iq.fu_full::IntAlu                       0                       # attempts to use FU when none available
system.cpu.iq.fu_full::IntMult                      0                       # attempts to use FU when none available
system.cpu.iq.fu_full::IntDiv                       0                       # attempts to use FU when none available
system.cpu.iq.fu_full::FloatAdd                     0                       # attempts to use FU when none available
system.cpu.iq.fu_full::FloatCmp                     0                       # attempts to use FU when none available
system.cpu.iq.fu_full::FloatCvt                     0                       # attempts to use FU when none available
system.cpu.iq.fu_full::FloatMult                    0                       # attempts to use FU when none available
system.cpu.iq.fu_full::FloatMultAcc                 0                       # attempts to use FU when none available
system.cpu.iq.fu_full::FloatDiv                     0                       # attempts to use FU when none available
system.cpu.iq.fu_full::FloatMisc                    0                       # attempts to use FU when none available
system.cpu.iq.fu_full::FloatSqrt                    0                       # attempts to use FU when none available
system.cpu.iq.fu_full::SimdAdd                      0                       # attempts to use FU when none available
system.cpu.iq.fu_full::SimdAddAcc                   0                       # attempts to use FU when none available
system.cpu.iq.fu_full::SimdAlu                      0                       # attempts to use FU when none available
system.cpu.iq.fu_full::SimdCmp                      0                       # attempts to use FU when none available
system.cpu.iq.fu_full::SimdCvt                      0                       # attempts to use FU when none available
system.cpu.iq.fu_full::SimdMisc                     0                       # attempts to use FU when none available
system.cpu.iq.fu_full::SimdMult                     0                       # attempts to use FU when none available
system.cpu.iq.fu_full::SimdMultAcc                  0                       # attempts to use FU when none available
system.cpu.iq.fu_full::SimdShift                    0                       # attempts to use FU when none available
system.cpu.iq.fu_full::SimdShiftAcc                 0                       # attempts to use FU when none available
system.cpu.iq.fu_full::SimdDiv                      0                       # attempts to use FU when none available
system.cpu.iq.fu_full::SimdSqrt                     0                       # attempts to use FU when none available
system.cpu.iq.fu_full::SimdFloatAdd                 0                       # attempts to use FU when none available
system.cpu.iq.fu_full::SimdFloatAlu                 0                       # attempts to use FU when none available
system.cpu.iq.fu_full::SimdFloatCmp                 0                       # attempts to use FU when none available
system.cpu.iq.fu_full::SimdFloatCvt                 0                       # attempts to use FU when none available
system.cpu.iq.fu_full::SimdFloatDiv                 0                       # attempts to use FU when none available
system.cpu.iq.fu_full::SimdFloatMisc                0                       # attempts to use FU when none available
system.cpu.iq.fu_full::SimdFloatMult                0                       # attempts to use FU when none available
system.cpu.iq.fu_full::SimdFloatMultAcc             0                       # attempts to use FU when none available
system.cpu.iq.fu_full::SimdFloatSqrt                0                       # attempts to use FU when none available
system.cpu.iq.fu_full::SimdReduceAdd                0                       # attempts to use FU when none available
system.cpu.iq.fu_full::SimdReduceAlu                0                       # attempts to use FU when none available
system.cpu.iq.fu_full::SimdReduceCmp                0                       # attempts to use FU when none available
system.cpu.iq.fu_full::SimdFloatReduceAdd            0                       # attempts to use FU when none available
system.cpu.iq.fu_full::SimdFloatReduceCmp            0                       # attempts to use FU when none available
system.cpu.iq.fu_full::SimdAes                      0                       # attempts to use FU when none available
system.cpu.iq.fu_full::SimdAesMix                   0                       # attempts to use FU when none available
system.cpu.iq.fu_full::SimdSha1Hash                 0                       # attempts to use FU when none available
system.cpu.iq.fu_full::SimdSha1Hash2                0                       # attempts to use FU when none available
system.cpu.iq.fu_full::SimdSha256Hash               0                       # attempts to use FU when none available
system.cpu.iq.fu_full::SimdSha256Hash2              0                       # attempts to use FU when none available
system.cpu.iq.fu_full::SimdShaSigma2                0                       # attempts to use FU when none available
system.cpu.iq.fu_full::SimdShaSigma3                0                       # attempts to use FU when none available
system.cpu.iq.fu_full::SimdPredAlu                  0                       # attempts to use FU when none available
system.cpu.iq.fu_full::MemRead                      0                       # attempts to use FU when none available
system.cpu.iq.fu_full::MemWrite                     0                       # attempts to use FU when none available
system.cpu.iq.fu_full::FloatMemRead                 0                       # attempts to use FU when none available
system.cpu.iq.fu_full::FloatMemWrite                0                       # attempts to use FU when none available
system.cpu.iq.fu_full::IprAccess                    0                       # attempts to use FU when none available
system.cpu.iq.fu_full::InstPrefetch                 0                       # attempts to use FU when none available
system.cpu.iq.int_alu_accesses                4014567                       # Number of integer alu accesses
system.cpu.iq.int_inst_queue_reads           10654914                       # Number of integer instruction queue reads
system.cpu.iq.int_inst_queue_wakeup_accesses      3987420                       # Number of integer instruction queue wakeup accesses
system.cpu.iq.int_inst_queue_writes           5210615                       # Number of integer instruction queue writes
system.cpu.iq.iqInstsAdded                    4447732                       # Number of instructions added to the IQ (excludes non-spec)
system.cpu.iq.iqInstsIssued                   4129534                       # Number of instructions issued
system.cpu.iq.iqNonSpecInstsAdded                1075                       # Number of non-speculative instructions added to the IQ
system.cpu.iq.iqSquashedInstsExamined          889151                       # Number of squashed instructions iterated over during squash; mainly for profiling
system.cpu.iq.iqSquashedInstsIssued             18276                       # Number of squashed instructions issued
system.cpu.iq.iqSquashedNonSpecRemoved            343                       # Number of squashed non-spec instructions that were removed
system.cpu.iq.iqSquashedOperandsExamined      1320275                       # Number of squashed operands that are examined and possibly removed from graph
system.cpu.iq.issued_per_cycle::samples       2556600                       # Number of insts issued each cycle
system.cpu.iq.issued_per_cycle::mean         1.615244                       # Number of insts issued each cycle
system.cpu.iq.issued_per_cycle::stdev        1.669849                       # Number of insts issued each cycle
system.cpu.iq.issued_per_cycle::underflows            0      0.00%      0.00% # Number of insts issued each cycle
system.cpu.iq.issued_per_cycle::0             1161847     45.45%     45.45% # Number of insts issued each cycle
system.cpu.iq.issued_per_cycle::1              172143      6.73%     52.18% # Number of insts issued each cycle
system.cpu.iq.issued_per_cycle::2              298229     11.67%     63.84% # Number of insts issued each cycle
system.cpu.iq.issued_per_cycle::3              336591     13.17%     77.01% # Number of insts issued each cycle
system.cpu.iq.issued_per_cycle::4              587790     22.99%    100.00% # Number of insts issued each cycle
system.cpu.iq.issued_per_cycle::overflows            0      0.00%    100.00% # Number of insts issued each cycle
system.cpu.iq.issued_per_cycle::min_value            0                       # Number of insts issued each cycle
system.cpu.iq.issued_per_cycle::max_value            4                       # Number of insts issued each cycle
system.cpu.iq.issued_per_cycle::total         2556600                       # Number of insts issued each cycle
system.cpu.iq.rate                           1.526464                       # Inst issue rate
system.cpu.iq.vec_alu_accesses                      0                       # Number of vector alu accesses
system.cpu.iq.vec_inst_queue_reads                  0                       # Number of vector instruction queue reads
system.cpu.iq.vec_inst_queue_wakeup_accesses            0                       # Number of vector instruction queue wakeup accesses
system.cpu.iq.vec_inst_queue_writes                 0                       # Number of vector instruction queue writes
system.cpu.itb.rdAccesses                           0                       # TLB accesses on read requests
system.cpu.itb.rdMisses                             0                       # TLB misses on read requests
system.cpu.itb.wrAccesses                      238389                       # TLB accesses on write requests
system.cpu.itb.wrMisses                           339                       # TLB misses on write requests
system.cpu.memDep0.conflictingLoads             11547                       # Number of conflicting loads.
system.cpu.memDep0.conflictingStores             4183                       # Number of conflicting stores.
system.cpu.memDep0.insertedLoads               603713                       # Number of loads inserted to the mem dependence unit.
system.cpu.memDep0.insertedStores              200163                       # Number of stores inserted to the mem dependence unit.
system.cpu.misc_regfile_reads                 1543814                       # number of misc regfile reads
system.cpu.misc_regfile_writes                    675                       # number of misc regfile writes
system.cpu.numCycles                          2705294                       # number of cpu cycles simulated
system.cpu.numWorkItemsCompleted                    0                       # number of work items this cpu completed
system.cpu.numWorkItemsStarted                      0                       # number of work items this cpu started
system.cpu.process.numSyscalls                     56                       # Number of system calls
system.cpu.rename.BlockCycles                  830968                       # Number of cycles rename is blocking
system.cpu.rename.CommittedMaps               4887046                       # Number of HB maps that are committed
system.cpu.rename.FullRegisterEvents              256                       # Number of times there has been no free registers
system.cpu.rename.IQFullEvents                  46166                       # Number of times rename has blocked due to IQ full
system.cpu.rename.IdleCycles                   339559                       # Number of cycles rename is idle
system.cpu.rename.LQFullEvents                  25089                       # Number of times rename has blocked due to LQ full
system.cpu.rename.ROBFullEvents                  6212                       # Number of times rename has blocked due to ROB full
system.cpu.rename.RenameLookups              12001552                       # Number of register rename lookups that rename has made
system.cpu.rename.RenamedInsts                4591171                       # Number of instructions processed by rename
system.cpu.rename.RenamedOperands             6287556                       # Number of destination operands rename has renamed
system.cpu.rename.RunCycles                   1162215                       # Number of cycles rename is running
system.cpu.rename.SQFullEvents                  71738                       # Number of times rename has blocked due to SQ full
system.cpu.rename.SquashCycles                  24376                       # Number of cycles rename is squashing
system.cpu.rename.UnblockCycles                180282                       # Number of cycles rename is unblocking
system.cpu.rename.UndoneMaps                  1400487                       # Number of HB maps that are undone due to squashing
system.cpu.rename.fp_rename_lookups            150701                       # Number of floating rename lookups
system.cpu.rename.int_rename_lookups          7298058                       # Number of integer rename lookups
system.cpu.rename.serializeStallCycles          19200                       # count of cycles rename stalled for serializing inst
system.cpu.rename.serializingInsts                869                       # count of serializing insts renamed
system.cpu.rename.skidInsts                    205602                       # count of insts added to the skid buffer
system.cpu.rename.tempSerializingInsts            913                       # count of temporary serializing insts renamed
system.cpu.rob.rob_reads                      6172484                       # The number of ROB reads
system.cpu.rob.rob_writes                     9141059                       # The number of ROB writes
system.cpu.timesIdled                            1465                       # Number of times that the entire CPU went into an idle state and unscheduled itself
system.l2bus.snoop_filter.hit_multi_requests            8                       # Number of requests hitting in the snoop filter with multiple (>1) holders of the requested data.
system.l2bus.snoop_filter.hit_multi_snoops            0                       # Number of snoops hitting in the snoop filter with multiple (>1) holders of the requested data.
system.l2bus.snoop_filter.hit_single_requests        18102                       # Number of requests hitting in the snoop filter with a single holder of the requested data.
system.l2bus.snoop_filter.hit_single_snoops          412                       # Number of snoops hitting in the snoop filter with a single holder of the requested data.
system.l2bus.snoop_filter.tot_requests          37484                       # Total number of requests made to the snoop filter.
system.l2bus.snoop_filter.tot_snoops              412                       # Total number of snoops made to the snoop filter.
system.l2cache.prefetcher.num_hwpf_issued          782                       # number of hwpf issued
system.l2cache.prefetcher.pfBufferHit               0                       # number of redundant prefetches already in prefetch queue
system.l2cache.prefetcher.pfIdentified            782                       # number of prefetch candidates identified
system.l2cache.prefetcher.pfInCache                 0                       # number of redundant prefetches already in cache/mshr dropped
system.l2cache.prefetcher.pfRemovedFull             0                       # number of prefetches dropped due to prefetch queue size
system.l2cache.prefetcher.pfSpanPage              162                       # number of prefetches that crossed the page
system.membus.snoop_filter.hit_multi_requests            0                       # Number of requests hitting in the snoop filter with multiple (>1) holders of the requested data.
system.membus.snoop_filter.hit_multi_snoops            0                       # Number of snoops hitting in the snoop filter with multiple (>1) holders of the requested data.
system.membus.snoop_filter.hit_single_requests         9211                       # Number of requests hitting in the snoop filter with a single holder of the requested data.
system.membus.snoop_filter.hit_single_snoops            0                       # Number of snoops hitting in the snoop filter with a single holder of the requested data.
system.membus.snoop_filter.tot_requests         22542                       # Total number of requests made to the snoop filter.
system.membus.snoop_filter.tot_snoops               0                       # Total number of snoops made to the snoop filter.
system.membus.pwrStateResidencyTicks::UNDEFINED   1082117200                       # Cumulative time (in ticks) in various power states
system.membus.trans_dist::ReadResp              11988                       # Transaction distribution
system.membus.trans_dist::WritebackDirty         1339                       # Transaction distribution
system.membus.trans_dist::CleanEvict             7872                       # Transaction distribution
system.membus.trans_dist::ReadExReq              1343                       # Transaction distribution
system.membus.trans_dist::ReadExResp             1343                       # Transaction distribution
system.membus.trans_dist::ReadSharedReq         11988                       # Transaction distribution
system.membus.pkt_count_system.l2cache.mem_side::system.mem_ctrl.port        35873                       # Packet count per connected master and slave (bytes)
system.membus.pkt_count_system.l2cache.mem_side::total        35873                       # Packet count per connected master and slave (bytes)
system.membus.pkt_count::total                  35873                       # Packet count per connected master and slave (bytes)
system.membus.pkt_size_system.l2cache.mem_side::system.mem_ctrl.port       938880                       # Cumulative packet size per connected master and slave (bytes)
system.membus.pkt_size_system.l2cache.mem_side::total       938880                       # Cumulative packet size per connected master and slave (bytes)
system.membus.pkt_size::total                  938880                       # Cumulative packet size per connected master and slave (bytes)
system.membus.snoops                                0                       # Total snoops (count)
system.membus.snoopTraffic                          0                       # Total snoop traffic (bytes)
system.membus.snoop_fanout::samples             13331                       # Request fanout histogram
system.membus.snoop_fanout::mean                    0                       # Request fanout histogram
system.membus.snoop_fanout::stdev                   0                       # Request fanout histogram
system.membus.snoop_fanout::underflows              0      0.00%      0.00% # Request fanout histogram
system.membus.snoop_fanout::0                   13331    100.00%    100.00% # Request fanout histogram
system.membus.snoop_fanout::1                       0      0.00%    100.00% # Request fanout histogram
system.membus.snoop_fanout::overflows               0      0.00%    100.00% # Request fanout histogram
system.membus.snoop_fanout::min_value               0                       # Request fanout histogram
system.membus.snoop_fanout::max_value               0                       # Request fanout histogram
system.membus.snoop_fanout::total               13331                       # Request fanout histogram
system.membus.reqLayer2.occupancy            11187975                       # Layer occupancy (ticks)
system.membus.reqLayer2.utilization               1.0                       # Layer utilization (%)
system.membus.respLayer0.occupancy           28956125                       # Layer occupancy (ticks)
system.membus.respLayer0.utilization              2.7                       # Layer utilization (%)
system.l2bus.pwrStateResidencyTicks::UNDEFINED   1082117200                       # Cumulative time (in ticks) in various power states
system.l2bus.trans_dist::ReadResp               17304                       # Transaction distribution
system.l2bus.trans_dist::WritebackDirty          4100                       # Transaction distribution
system.l2bus.trans_dist::CleanEvict             23291                       # Transaction distribution
system.l2bus.trans_dist::HardPFReq               1080                       # Transaction distribution
system.l2bus.trans_dist::ReadExReq               2078                       # Transaction distribution
system.l2bus.trans_dist::ReadExResp              2078                       # Transaction distribution
system.l2bus.trans_dist::ReadSharedReq          17304                       # Transaction distribution
system.l2bus.pkt_count_system.cpu.icache.mem_side::system.l2cache.cpu_side         7545                       # Packet count per connected master and slave (bytes)
system.l2bus.pkt_count_system.cpu.dcache.mem_side::system.l2cache.cpu_side        49319                       # Packet count per connected master and slave (bytes)
system.l2bus.pkt_count::total                   56864                       # Packet count per connected master and slave (bytes)
system.l2bus.pkt_size_system.cpu.icache.mem_side::system.l2cache.cpu_side       166336                       # Cumulative packet size per connected master and slave (bytes)
system.l2bus.pkt_size_system.cpu.dcache.mem_side::system.l2cache.cpu_side      1250688                       # Cumulative packet size per connected master and slave (bytes)
system.l2bus.pkt_size::total                  1417024                       # Cumulative packet size per connected master and slave (bytes)
system.l2bus.snoops                             10371                       # Total snoops (count)
system.l2bus.snoopTraffic                       85824                       # Total snoop traffic (bytes)
system.l2bus.snoop_fanout::samples              29751                       # Request fanout histogram
system.l2bus.snoop_fanout::mean              0.014117                       # Request fanout histogram
system.l2bus.snoop_fanout::stdev             0.117976                       # Request fanout histogram
system.l2bus.snoop_fanout::underflows               0      0.00%      0.00% # Request fanout histogram
system.l2bus.snoop_fanout::0                    29331     98.59%     98.59% # Request fanout histogram
system.l2bus.snoop_fanout::1                      420      1.41%    100.00% # Request fanout histogram
system.l2bus.snoop_fanout::2                        0      0.00%    100.00% # Request fanout histogram
system.l2bus.snoop_fanout::overflows                0      0.00%    100.00% # Request fanout histogram
system.l2bus.snoop_fanout::min_value                0                       # Request fanout histogram
system.l2bus.snoop_fanout::max_value                1                       # Request fanout histogram
system.l2bus.snoop_fanout::total                29751                       # Request fanout histogram
system.l2bus.respLayer1.occupancy            20137599                       # Layer occupancy (ticks)
system.l2bus.respLayer1.utilization               1.9                       # Layer utilization (%)
system.l2bus.reqLayer0.occupancy             18586462                       # Layer occupancy (ticks)
system.l2bus.reqLayer0.utilization                1.7                       # Layer utilization (%)
system.l2bus.respLayer0.occupancy             3121998                       # Layer occupancy (ticks)
system.l2bus.respLayer0.utilization               0.3                       # Layer utilization (%)
system.clk_domain.clock                           400                       # Clock period in ticks
system.clk_domain.voltage_domain.voltage            1                       # Voltage in Volts
system.cpu.pwrStateResidencyTicks::ON      1082117200                       # Cumulative time (in ticks) in various power states
system.cpu.icache.pwrStateResidencyTicks::UNDEFINED   1082117200                       # Cumulative time (in ticks) in various power states
system.cpu.icache.demand_hits::.cpu.inst       234990                       # number of demand (read+write) hits
system.cpu.icache.demand_hits::total           234990                       # number of demand (read+write) hits
system.cpu.icache.overall_hits::.cpu.inst       234990                       # number of overall hits
system.cpu.icache.overall_hits::total          234990                       # number of overall hits
system.cpu.icache.demand_misses::.cpu.inst         3298                       # number of demand (read+write) misses
system.cpu.icache.demand_misses::total           3298                       # number of demand (read+write) misses
system.cpu.icache.overall_misses::.cpu.inst         3298                       # number of overall misses
system.cpu.icache.overall_misses::total          3298                       # number of overall misses
system.cpu.icache.demand_miss_latency::.cpu.inst    168022800                       # number of demand (read+write) miss cycles
system.cpu.icache.demand_miss_latency::total    168022800                       # number of demand (read+write) miss cycles
system.cpu.icache.overall_miss_latency::.cpu.inst    168022800                       # number of overall miss cycles
system.cpu.icache.overall_miss_latency::total    168022800                       # number of overall miss cycles
system.cpu.icache.demand_accesses::.cpu.inst       238288                       # number of demand (read+write) accesses
system.cpu.icache.demand_accesses::total       238288                       # number of demand (read+write) accesses
system.cpu.icache.overall_accesses::.cpu.inst       238288                       # number of overall (read+write) accesses
system.cpu.icache.overall_accesses::total       238288                       # number of overall (read+write) accesses
system.cpu.icache.demand_miss_rate::.cpu.inst     0.013840                       # miss rate for demand accesses
system.cpu.icache.demand_miss_rate::total     0.013840                       # miss rate for demand accesses
system.cpu.icache.overall_miss_rate::.cpu.inst     0.013840                       # miss rate for overall accesses
system.cpu.icache.overall_miss_rate::total     0.013840                       # miss rate for overall accesses
system.cpu.icache.demand_avg_miss_latency::.cpu.inst 50946.876895                       # average overall miss latency
system.cpu.icache.demand_avg_miss_latency::total 50946.876895                       # average overall miss latency
system.cpu.icache.overall_avg_miss_latency::.cpu.inst 50946.876895                       # average overall miss latency
system.cpu.icache.overall_avg_miss_latency::total 50946.876895                       # average overall miss latency
system.cpu.icache.blocked_cycles::no_mshrs           39                       # number of cycles access was blocked
system.cpu.icache.blocked_cycles::no_targets            0                       # number of cycles access was blocked
system.cpu.icache.blocked::no_mshrs                 2                       # number of cycles access was blocked
system.cpu.icache.blocked::no_targets               0                       # number of cycles access was blocked
system.cpu.icache.avg_blocked_cycles::no_mshrs    19.500000                       # average number of cycles each access was blocked
system.cpu.icache.avg_blocked_cycles::no_targets          nan                       # average number of cycles each access was blocked
system.cpu.icache.demand_mshr_hits::.cpu.inst          697                       # number of demand (read+write) MSHR hits
system.cpu.icache.demand_mshr_hits::total          697                       # number of demand (read+write) MSHR hits
system.cpu.icache.overall_mshr_hits::.cpu.inst          697                       # number of overall MSHR hits
system.cpu.icache.overall_mshr_hits::total          697                       # number of overall MSHR hits
system.cpu.icache.demand_mshr_misses::.cpu.inst         2601                       # number of demand (read+write) MSHR misses
system.cpu.icache.demand_mshr_misses::total         2601                       # number of demand (read+write) MSHR misses
system.cpu.icache.overall_mshr_misses::.cpu.inst         2601                       # number of overall MSHR misses
system.cpu.icache.overall_mshr_misses::total         2601                       # number of overall MSHR misses
system.cpu.icache.demand_mshr_miss_latency::.cpu.inst    132986800                       # number of demand (read+write) MSHR miss cycles
system.cpu.icache.demand_mshr_miss_latency::total    132986800                       # number of demand (read+write) MSHR miss cycles
system.cpu.icache.overall_mshr_miss_latency::.cpu.inst    132986800                       # number of overall MSHR miss cycles
system.cpu.icache.overall_mshr_miss_latency::total    132986800                       # number of overall MSHR miss cycles
system.cpu.icache.demand_mshr_miss_rate::.cpu.inst     0.010915                       # mshr miss rate for demand accesses
system.cpu.icache.demand_mshr_miss_rate::total     0.010915                       # mshr miss rate for demand accesses
system.cpu.icache.overall_mshr_miss_rate::.cpu.inst     0.010915                       # mshr miss rate for overall accesses
system.cpu.icache.overall_mshr_miss_rate::total     0.010915                       # mshr miss rate for overall accesses
system.cpu.icache.demand_avg_mshr_miss_latency::.cpu.inst 51129.104191                       # average overall mshr miss latency
system.cpu.icache.demand_avg_mshr_miss_latency::total 51129.104191                       # average overall mshr miss latency
system.cpu.icache.overall_avg_mshr_miss_latency::.cpu.inst 51129.104191                       # average overall mshr miss latency
system.cpu.icache.overall_avg_mshr_miss_latency::total 51129.104191                       # average overall mshr miss latency
system.cpu.icache.replacements                   2345                       # number of replacements
system.cpu.icache.ReadReq_hits::.cpu.inst       234990                       # number of ReadReq hits
system.cpu.icache.ReadReq_hits::total          234990                       # number of ReadReq hits
system.cpu.icache.ReadReq_misses::.cpu.inst         3298                       # number of ReadReq misses
system.cpu.icache.ReadReq_misses::total          3298                       # number of ReadReq misses
system.cpu.icache.ReadReq_miss_latency::.cpu.inst    168022800                       # number of ReadReq miss cycles
system.cpu.icache.ReadReq_miss_latency::total    168022800                       # number of ReadReq miss cycles
system.cpu.icache.ReadReq_accesses::.cpu.inst       238288                       # number of ReadReq accesses(hits+misses)
system.cpu.icache.ReadReq_accesses::total       238288                       # number of ReadReq accesses(hits+misses)
system.cpu.icache.ReadReq_miss_rate::.cpu.inst     0.013840                       # miss rate for ReadReq accesses
system.cpu.icache.ReadReq_miss_rate::total     0.013840                       # miss rate for ReadReq accesses
system.cpu.icache.ReadReq_avg_miss_latency::.cpu.inst 50946.876895                       # average ReadReq miss latency
system.cpu.icache.ReadReq_avg_miss_latency::total 50946.876895                       # average ReadReq miss latency
system.cpu.icache.ReadReq_mshr_hits::.cpu.inst          697                       # number of ReadReq MSHR hits
system.cpu.icache.ReadReq_mshr_hits::total          697                       # number of ReadReq MSHR hits
system.cpu.icache.ReadReq_mshr_misses::.cpu.inst         2601                       # number of ReadReq MSHR misses
system.cpu.icache.ReadReq_mshr_misses::total         2601                       # number of ReadReq MSHR misses
system.cpu.icache.ReadReq_mshr_miss_latency::.cpu.inst    132986800                       # number of ReadReq MSHR miss cycles
system.cpu.icache.ReadReq_mshr_miss_latency::total    132986800                       # number of ReadReq MSHR miss cycles
system.cpu.icache.ReadReq_mshr_miss_rate::.cpu.inst     0.010915                       # mshr miss rate for ReadReq accesses
system.cpu.icache.ReadReq_mshr_miss_rate::total     0.010915                       # mshr miss rate for ReadReq accesses
system.cpu.icache.ReadReq_avg_mshr_miss_latency::.cpu.inst 51129.104191                       # average ReadReq mshr miss latency
system.cpu.icache.ReadReq_avg_mshr_miss_latency::total 51129.104191                       # average ReadReq mshr miss latency
system.cpu.icache.prefetcher.pwrStateResidencyTicks::UNDEFINED   1082117200                       # Cumulative time (in ticks) in various power states
system.cpu.icache.tags.pwrStateResidencyTicks::UNDEFINED   1082117200                       # Cumulative time (in ticks) in various power states
system.cpu.icache.tags.tagsinuse           253.456073                       # Cycle average of tags in use
system.cpu.icache.tags.total_refs              205585                       # Total number of references to valid blocks.
system.cpu.icache.tags.sampled_refs              2345                       # Sample count of references to valid blocks.
system.cpu.icache.tags.avg_refs             87.669510                       # Average number of references to valid blocks.
system.cpu.icache.tags.warmup_cycle             66400                       # Cycle when the warmup percentage was hit.
system.cpu.icache.tags.occ_blocks::.cpu.inst   253.456073                       # Average occupied blocks per requestor
system.cpu.icache.tags.occ_percent::.cpu.inst     0.990063                       # Average percentage of cache occupancy
system.cpu.icache.tags.occ_percent::total     0.990063                       # Average percentage of cache occupancy
system.cpu.icache.tags.occ_task_id_blocks::1024          256                       # Occupied blocks per task id
system.cpu.icache.tags.age_task_id_blocks_1024::0           75                       # Occupied blocks per task id
system.cpu.icache.tags.age_task_id_blocks_1024::1          155                       # Occupied blocks per task id
system.cpu.icache.tags.age_task_id_blocks_1024::2           26                       # Occupied blocks per task id
system.cpu.icache.tags.occ_task_id_percent::1024            1                       # Percentage of cache occupancy per task id
system.cpu.icache.tags.tag_accesses            479177                       # Number of tag accesses
system.cpu.icache.tags.data_accesses           479177                       # Number of data accesses
system.cpu.dtb.walker.pwrStateResidencyTicks::UNDEFINED   1082117200                       # Cumulative time (in ticks) in various power states
system.cpu.interrupts.clk_domain.clock           6400                       # Clock period in ticks
system.cpu.itb.walker.pwrStateResidencyTicks::UNDEFINED   1082117200                       # Cumulative time (in ticks) in various power states
system.cpu.dcache.pwrStateResidencyTicks::UNDEFINED   1082117200                       # Cumulative time (in ticks) in various power states
system.cpu.dcache.demand_hits::.cpu.data       664979                       # number of demand (read+write) hits
system.cpu.dcache.demand_hits::total           664979                       # number of demand (read+write) hits
system.cpu.dcache.overall_hits::.cpu.data       664979                       # number of overall hits
system.cpu.dcache.overall_hits::total          664979                       # number of overall hits
system.cpu.dcache.demand_misses::.cpu.data        34763                       # number of demand (read+write) misses
system.cpu.dcache.demand_misses::total          34763                       # number of demand (read+write) misses
system.cpu.dcache.overall_misses::.cpu.data        34763                       # number of overall misses
system.cpu.dcache.overall_misses::total         34763                       # number of overall misses
system.cpu.dcache.demand_miss_latency::.cpu.data   1684538799                       # number of demand (read+write) miss cycles
system.cpu.dcache.demand_miss_latency::total   1684538799                       # number of demand (read+write) miss cycles
system.cpu.dcache.overall_miss_latency::.cpu.data   1684538799                       # number of overall miss cycles
system.cpu.dcache.overall_miss_latency::total   1684538799                       # number of overall miss cycles
system.cpu.dcache.demand_accesses::.cpu.data       699742                       # number of demand (read+write) accesses
system.cpu.dcache.demand_accesses::total       699742                       # number of demand (read+write) accesses
system.cpu.dcache.overall_accesses::.cpu.data       699742                       # number of overall (read+write) accesses
system.cpu.dcache.overall_accesses::total       699742                       # number of overall (read+write) accesses
system.cpu.dcache.demand_miss_rate::.cpu.data     0.049680                       # miss rate for demand accesses
system.cpu.dcache.demand_miss_rate::total     0.049680                       # miss rate for demand accesses
system.cpu.dcache.overall_miss_rate::.cpu.data     0.049680                       # miss rate for overall accesses
system.cpu.dcache.overall_miss_rate::total     0.049680                       # miss rate for overall accesses
system.cpu.dcache.demand_avg_miss_latency::.cpu.data 48457.808561                       # average overall miss latency
system.cpu.dcache.demand_avg_miss_latency::total 48457.808561                       # average overall miss latency
system.cpu.dcache.overall_avg_miss_latency::.cpu.data 48457.808561                       # average overall miss latency
system.cpu.dcache.overall_avg_miss_latency::total 48457.808561                       # average overall miss latency
system.cpu.dcache.blocked_cycles::no_mshrs        27536                       # number of cycles access was blocked
system.cpu.dcache.blocked_cycles::no_targets          138                       # number of cycles access was blocked
system.cpu.dcache.blocked::no_mshrs               745                       # number of cycles access was blocked
system.cpu.dcache.blocked::no_targets               1                       # number of cycles access was blocked
system.cpu.dcache.avg_blocked_cycles::no_mshrs    36.961074                       # average number of cycles each access was blocked
system.cpu.dcache.avg_blocked_cycles::no_targets          138                       # average number of cycles each access was blocked
system.cpu.dcache.unused_prefetches              1740                       # number of HardPF blocks evicted w/o reference
system.cpu.dcache.writebacks::.writebacks         2761                       # number of writebacks
system.cpu.dcache.writebacks::total              2761                       # number of writebacks
system.cpu.dcache.demand_mshr_hits::.cpu.data        22201                       # number of demand (read+write) MSHR hits
system.cpu.dcache.demand_mshr_hits::total        22201                       # number of demand (read+write) MSHR hits
system.cpu.dcache.overall_mshr_hits::.cpu.data        22201                       # number of overall MSHR hits
system.cpu.dcache.overall_mshr_hits::total        22201                       # number of overall MSHR hits
system.cpu.dcache.demand_mshr_misses::.cpu.data        12562                       # number of demand (read+write) MSHR misses
system.cpu.dcache.demand_mshr_misses::total        12562                       # number of demand (read+write) MSHR misses
system.cpu.dcache.overall_mshr_misses::.cpu.data        12562                       # number of overall MSHR misses
system.cpu.dcache.overall_mshr_misses::.cpu.dcache.prefetcher         4219                       # number of overall MSHR misses
system.cpu.dcache.overall_mshr_misses::total        16781                       # number of overall MSHR misses
system.cpu.dcache.demand_mshr_miss_latency::.cpu.data    575947999                       # number of demand (read+write) MSHR miss cycles
system.cpu.dcache.demand_mshr_miss_latency::total    575947999                       # number of demand (read+write) MSHR miss cycles
system.cpu.dcache.overall_mshr_miss_latency::.cpu.data    575947999                       # number of overall MSHR miss cycles
system.cpu.dcache.overall_mshr_miss_latency::.cpu.dcache.prefetcher    241225539                       # number of overall MSHR miss cycles
system.cpu.dcache.overall_mshr_miss_latency::total    817173538                       # number of overall MSHR miss cycles
system.cpu.dcache.demand_mshr_miss_rate::.cpu.data     0.017952                       # mshr miss rate for demand accesses
system.cpu.dcache.demand_mshr_miss_rate::total     0.017952                       # mshr miss rate for demand accesses
system.cpu.dcache.overall_mshr_miss_rate::.cpu.data     0.017952                       # mshr miss rate for overall accesses
system.cpu.dcache.overall_mshr_miss_rate::.cpu.dcache.prefetcher          inf                       # mshr miss rate for overall accesses
system.cpu.dcache.overall_mshr_miss_rate::total     0.023982                       # mshr miss rate for overall accesses
system.cpu.dcache.demand_avg_mshr_miss_latency::.cpu.data 45848.431699                       # average overall mshr miss latency
system.cpu.dcache.demand_avg_mshr_miss_latency::total 45848.431699                       # average overall mshr miss latency
system.cpu.dcache.overall_avg_mshr_miss_latency::.cpu.data 45848.431699                       # average overall mshr miss latency
system.cpu.dcache.overall_avg_mshr_miss_latency::.cpu.dcache.prefetcher 57175.998815                       # average overall mshr miss latency
system.cpu.dcache.overall_avg_mshr_miss_latency::total 48696.355283                       # average overall mshr miss latency
system.cpu.dcache.replacements                  15757                       # number of replacements
system.cpu.dcache.ReadReq_hits::.cpu.data       497692                       # number of ReadReq hits
system.cpu.dcache.ReadReq_hits::total          497692                       # number of ReadReq hits
system.cpu.dcache.ReadReq_misses::.cpu.data        32650                       # number of ReadReq misses
system.cpu.dcache.ReadReq_misses::total         32650                       # number of ReadReq misses
system.cpu.dcache.ReadReq_miss_latency::.cpu.data   1579970800                       # number of ReadReq miss cycles
system.cpu.dcache.ReadReq_miss_latency::total   1579970800                       # number of ReadReq miss cycles
system.cpu.dcache.ReadReq_accesses::.cpu.data       530342                       # number of ReadReq accesses(hits+misses)
system.cpu.dcache.ReadReq_accesses::total       530342                       # number of ReadReq accesses(hits+misses)
system.cpu.dcache.ReadReq_miss_rate::.cpu.data     0.061564                       # miss rate for ReadReq accesses
system.cpu.dcache.ReadReq_miss_rate::total     0.061564                       # miss rate for ReadReq accesses
system.cpu.dcache.ReadReq_avg_miss_latency::.cpu.data 48391.142420                       # average ReadReq miss latency
system.cpu.dcache.ReadReq_avg_miss_latency::total 48391.142420                       # average ReadReq miss latency
system.cpu.dcache.ReadReq_mshr_hits::.cpu.data        22166                       # number of ReadReq MSHR hits
system.cpu.dcache.ReadReq_mshr_hits::total        22166                       # number of ReadReq MSHR hits
system.cpu.dcache.ReadReq_mshr_misses::.cpu.data        10484                       # number of ReadReq MSHR misses
system.cpu.dcache.ReadReq_mshr_misses::total        10484                       # number of ReadReq MSHR misses
system.cpu.dcache.ReadReq_mshr_miss_latency::.cpu.data    474361200                       # number of ReadReq MSHR miss cycles
system.cpu.dcache.ReadReq_mshr_miss_latency::total    474361200                       # number of ReadReq MSHR miss cycles
system.cpu.dcache.ReadReq_mshr_miss_rate::.cpu.data     0.019768                       # mshr miss rate for ReadReq accesses
system.cpu.dcache.ReadReq_mshr_miss_rate::total     0.019768                       # mshr miss rate for ReadReq accesses
system.cpu.dcache.ReadReq_avg_mshr_miss_latency::.cpu.data 45246.203739                       # average ReadReq mshr miss latency
system.cpu.dcache.ReadReq_avg_mshr_miss_latency::total 45246.203739                       # average ReadReq mshr miss latency
system.cpu.dcache.WriteReq_hits::.cpu.data       167287                       # number of WriteReq hits
system.cpu.dcache.WriteReq_hits::total         167287                       # number of WriteReq hits
system.cpu.dcache.WriteReq_misses::.cpu.data         2113                       # number of WriteReq misses
system.cpu.dcache.WriteReq_misses::total         2113                       # number of WriteReq misses
system.cpu.dcache.WriteReq_miss_latency::.cpu.data    104567999                       # number of WriteReq miss cycles
system.cpu.dcache.WriteReq_miss_latency::total    104567999                       # number of WriteReq miss cycles
system.cpu.dcache.WriteReq_accesses::.cpu.data       169400                       # number of WriteReq accesses(hits+misses)
system.cpu.dcache.WriteReq_accesses::total       169400                       # number of WriteReq accesses(hits+misses)
system.cpu.dcache.WriteReq_miss_rate::.cpu.data     0.012473                       # miss rate for WriteReq accesses
system.cpu.dcache.WriteReq_miss_rate::total     0.012473                       # miss rate for WriteReq accesses
system.cpu.dcache.WriteReq_avg_miss_latency::.cpu.data 49487.931377                       # average WriteReq miss latency
system.cpu.dcache.WriteReq_avg_miss_latency::total 49487.931377                       # average WriteReq miss latency
system.cpu.dcache.WriteReq_mshr_hits::.cpu.data           35                       # number of WriteReq MSHR hits
system.cpu.dcache.WriteReq_mshr_hits::total           35                       # number of WriteReq MSHR hits
system.cpu.dcache.WriteReq_mshr_misses::.cpu.data         2078                       # number of WriteReq MSHR misses
system.cpu.dcache.WriteReq_mshr_misses::total         2078                       # number of WriteReq MSHR misses
system.cpu.dcache.WriteReq_mshr_miss_latency::.cpu.data    101586799                       # number of WriteReq MSHR miss cycles
system.cpu.dcache.WriteReq_mshr_miss_latency::total    101586799                       # number of WriteReq MSHR miss cycles
[...]
system.l2cache.overall_mshr_miss_rate::.cpu.data     0.522255                       # mshr miss rate for overall accesses
system.l2cache.overall_mshr_miss_rate::.cpu.dcache.prefetcher     0.762500                       # mshr miss rate for overall accesses
system.l2cache.overall_mshr_miss_rate::.l2cache.prefetcher          inf                       # mshr miss rate for overall accesses
system.l2cache.overall_mshr_miss_rate::total     0.345277                       # mshr miss rate for overall accesses
system.l2cache.demand_avg_mshr_miss_latency::.cpu.inst 58838.287154                       # average overall mshr miss latency
system.l2cache.demand_avg_mshr_miss_latency::.cpu.data 60606.818182                       # average overall mshr miss latency
system.l2cache.demand_avg_mshr_miss_latency::.cpu.dcache.prefetcher 59690.754098                       # average overall mshr miss latency
system.l2cache.demand_avg_mshr_miss_latency::total 59411.255521                       # average overall mshr miss latency
system.l2cache.overall_avg_mshr_miss_latency::.cpu.inst 58838.287154                       # average overall mshr miss latency
system.l2cache.overall_avg_mshr_miss_latency::.cpu.data 60606.818182                       # average overall mshr miss latency
system.l2cache.overall_avg_mshr_miss_latency::.cpu.dcache.prefetcher 59690.754098                       # average overall mshr miss latency
system.l2cache.overall_avg_mshr_miss_latency::.l2cache.prefetcher 61598.500000                       # average overall mshr miss latency
system.l2cache.overall_avg_mshr_miss_latency::total 59418.133648                       # average overall mshr miss latency
system.l2cache.replacements                       643                       # number of replacements
system.l2cache.WritebackDirty_hits::.writebacks          109                       # number of WritebackDirty hits
system.l2cache.WritebackDirty_hits::total          109                       # number of WritebackDirty hits
system.l2cache.WritebackDirty_accesses::.writebacks          109                       # number of WritebackDirty accesses(hits+misses)
system.l2cache.WritebackDirty_accesses::total          109                       # number of WritebackDirty accesses(hits+misses)
system.l2cache.CleanEvict_mshr_misses::.writebacks           20                       # number of CleanEvict MSHR misses
system.l2cache.CleanEvict_mshr_misses::total           20                       # number of CleanEvict MSHR misses
system.l2cache.CleanEvict_mshr_miss_rate::.writebacks          inf                       # mshr miss rate for CleanEvict accesses
system.l2cache.CleanEvict_mshr_miss_rate::total          inf                       # mshr miss rate for CleanEvict accesses
system.l2cache.HardPFReq_mshr_misses::.l2cache.prefetcher            2                       # number of HardPFReq MSHR misses
system.l2cache.HardPFReq_mshr_misses::total            2                       # number of HardPFReq MSHR misses
system.l2cache.HardPFReq_mshr_miss_latency::.l2cache.prefetcher       123197                       # number of HardPFReq MSHR miss cycles
system.l2cache.HardPFReq_mshr_miss_latency::total       123197                       # number of HardPFReq MSHR miss cycles
system.l2cache.HardPFReq_mshr_miss_rate::.l2cache.prefetcher          inf                       # mshr miss rate for HardPFReq accesses
system.l2cache.HardPFReq_mshr_miss_rate::total          inf                       # mshr miss rate for HardPFReq accesses
system.l2cache.HardPFReq_avg_mshr_miss_latency::.l2cache.prefetcher 61598.500000                       # average HardPFReq mshr miss latency
system.l2cache.HardPFReq_avg_mshr_miss_latency::total 61598.500000                       # average HardPFReq mshr miss latency
system.l2cache.UpgradeReq_hits::.cpu.data            1                       # number of UpgradeReq hits
system.l2cache.UpgradeReq_hits::total               1                       # number of UpgradeReq hits
system.l2cache.UpgradeReq_accesses::.cpu.data            1                       # number of UpgradeReq accesses(hits+misses)
system.l2cache.UpgradeReq_accesses::total            1                       # number of UpgradeReq accesses(hits+misses)
system.l2cache.ReadExReq_hits::.cpu.data           10                       # number of ReadExReq hits
system.l2cache.ReadExReq_hits::total               10                       # number of ReadExReq hits
system.l2cache.ReadExReq_misses::.cpu.data           24                       # number of ReadExReq misses
system.l2cache.ReadExReq_misses::total             24                       # number of ReadExReq misses
system.l2cache.ReadExReq_miss_latency::.cpu.data      1640000                       # number of ReadExReq miss cycles
system.l2cache.ReadExReq_miss_latency::total      1640000                       # number of ReadExReq miss cycles
system.l2cache.ReadExReq_accesses::.cpu.data           34                       # number of ReadExReq accesses(hits+misses)
system.l2cache.ReadExReq_accesses::total           34                       # number of ReadExReq accesses(hits+misses)
system.l2cache.ReadExReq_miss_rate::.cpu.data     0.705882                       # miss rate for ReadExReq accesses
system.l2cache.ReadExReq_miss_rate::total     0.705882                       # miss rate for ReadExReq accesses
system.l2cache.ReadExReq_avg_miss_latency::.cpu.data 68333.333333                       # average ReadExReq miss latency
system.l2cache.ReadExReq_avg_miss_latency::total 68333.333333                       # average ReadExReq miss latency
system.l2cache.ReadExReq_mshr_misses::.cpu.data           24                       # number of ReadExReq MSHR misses
system.l2cache.ReadExReq_mshr_misses::total           24                       # number of ReadExReq MSHR misses
system.l2cache.ReadExReq_mshr_miss_latency::.cpu.data      1448000                       # number of ReadExReq MSHR miss cycles
system.l2cache.ReadExReq_mshr_miss_latency::total      1448000                       # number of ReadExReq MSHR miss cycles
system.l2cache.ReadExReq_mshr_miss_rate::.cpu.data     0.705882                       # mshr miss rate for ReadExReq accesses
system.l2cache.ReadExReq_mshr_miss_rate::total     0.705882                       # mshr miss rate for ReadExReq accesses
system.l2cache.ReadExReq_avg_mshr_miss_latency::.cpu.data 60333.333333                       # average ReadExReq mshr miss latency
system.l2cache.ReadExReq_avg_mshr_miss_latency::total 60333.333333                       # average ReadExReq mshr miss latency
system.l2cache.ReadSharedReq_hits::.cpu.inst         1028                       # number of ReadSharedReq hits
system.l2cache.ReadSharedReq_hits::.cpu.data          150                       # number of ReadSharedReq hits
system.l2cache.ReadSharedReq_hits::.cpu.dcache.prefetcher           19                       # number of ReadSharedReq hits
system.l2cache.ReadSharedReq_hits::total         1197                       # number of ReadSharedReq hits
system.l2cache.ReadSharedReq_misses::.cpu.inst          397                       # number of ReadSharedReq misses
system.l2cache.ReadSharedReq_misses::.cpu.data          153                       # number of ReadSharedReq misses
system.l2cache.ReadSharedReq_misses::.cpu.dcache.prefetcher           61                       # number of ReadSharedReq misses
system.l2cache.ReadSharedReq_misses::total          611                       # number of ReadSharedReq misses
system.l2cache.ReadSharedReq_miss_latency::.cpu.inst     26526800                       # number of ReadSharedReq miss cycles
system.l2cache.ReadSharedReq_miss_latency::.cpu.data     10491200                       # number of ReadSharedReq miss cycles
system.l2cache.ReadSharedReq_miss_latency::.cpu.dcache.prefetcher      4129136                       # number of ReadSharedReq miss cycles
system.l2cache.ReadSharedReq_miss_latency::total     41147136                       # number of ReadSharedReq miss cycles
system.l2cache.ReadSharedReq_accesses::.cpu.inst         1425                       # number of ReadSharedReq accesses(hits+misses)
system.l2cache.ReadSharedReq_accesses::.cpu.data          303                       # number of ReadSharedReq accesses(hits+misses)
system.l2cache.ReadSharedReq_accesses::.cpu.dcache.prefetcher           80                       # number of ReadSharedReq accesses(hits+misses)
system.l2cache.ReadSharedReq_accesses::total         1808                       # number of ReadSharedReq accesses(hits+misses)
system.l2cache.ReadSharedReq_miss_rate::.cpu.inst     0.278596                       # miss rate for ReadSharedReq accesses
system.l2cache.ReadSharedReq_miss_rate::.cpu.data     0.504950                       # miss rate for ReadSharedReq accesses
system.l2cache.ReadSharedReq_miss_rate::.cpu.dcache.prefetcher     0.762500                       # miss rate for ReadSharedReq accesses
system.l2cache.ReadSharedReq_miss_rate::total     0.337942                       # miss rate for ReadSharedReq accesses
system.l2cache.ReadSharedReq_avg_miss_latency::.cpu.inst 66818.136020                       # average ReadSharedReq miss latency
system.l2cache.ReadSharedReq_avg_miss_latency::.cpu.data 68569.934641                       # average ReadSharedReq miss latency
system.l2cache.ReadSharedReq_avg_miss_latency::.cpu.dcache.prefetcher 67690.754098                       # average ReadSharedReq miss latency
system.l2cache.ReadSharedReq_avg_miss_latency::total 67343.921440                       # average ReadSharedReq miss latency
system.l2cache.ReadSharedReq_mshr_hits::.cpu.data            1                       # number of ReadSharedReq MSHR hits
system.l2cache.ReadSharedReq_mshr_hits::total            1                       # number of ReadSharedReq MSHR hits
system.l2cache.ReadSharedReq_mshr_misses::.cpu.inst          397                       # number of ReadSharedReq MSHR misses
system.l2cache.ReadSharedReq_mshr_misses::.cpu.data          152                       # number of ReadSharedReq MSHR misses
system.l2cache.ReadSharedReq_mshr_misses::.cpu.dcache.prefetcher           61                       # number of ReadSharedReq MSHR misses
system.l2cache.ReadSharedReq_mshr_misses::total          610                       # number of ReadSharedReq MSHR misses
system.l2cache.ReadSharedReq_mshr_miss_latency::.cpu.inst     23358800                       # number of ReadSharedReq MSHR miss cycles
system.l2cache.ReadSharedReq_mshr_miss_latency::.cpu.data      9218800                       # number of ReadSharedReq MSHR miss cycles
system.l2cache.ReadSharedReq_mshr_miss_latency::.cpu.dcache.prefetcher      3641136                       # number of ReadSharedReq MSHR miss cycles
system.l2cache.ReadSharedReq_mshr_miss_latency::total     36218736                       # number of ReadSharedReq MSHR miss cycles
system.l2cache.ReadSharedReq_mshr_miss_rate::.cpu.inst     0.278596                       # mshr miss rate for ReadSharedReq accesses
system.l2cache.ReadSharedReq_mshr_miss_rate::.cpu.data     0.501650                       # mshr miss rate for ReadSharedReq accesses
system.l2cache.ReadSharedReq_mshr_miss_rate::.cpu.dcache.prefetcher     0.762500                       # mshr miss rate for ReadSharedReq accesses
system.l2cache.ReadSharedReq_mshr_miss_rate::total     0.337389                       # mshr miss rate for ReadSharedReq accesses
system.l2cache.ReadSharedReq_avg_mshr_miss_latency::.cpu.inst 58838.287154                       # average ReadSharedReq mshr miss latency
system.l2cache.ReadSharedReq_avg_mshr_miss_latency::.cpu.data        60650                       # average ReadSharedReq mshr miss latency
system.l2cache.ReadSharedReq_avg_mshr_miss_latency::.cpu.dcache.prefetcher 59690.754098                       # average ReadSharedReq mshr miss latency
system.l2cache.ReadSharedReq_avg_mshr_miss_latency::total 59374.977049                       # average ReadSharedReq mshr miss latency
system.l2cache.prefetcher.pwrStateResidencyTicks::UNDEFINED     89288800                       # Cumulative time (in ticks) in various power states
system.l2cache.tags.pwrStateResidencyTicks::UNDEFINED     89288800                       # Cumulative time (in ticks) in various power states
system.l2cache.tags.tagsinuse                    4096                       # Cycle average of tags in use
system.l2cache.tags.total_refs                  16213                       # Total number of references to valid blocks.
system.l2cache.tags.sampled_refs                 4739                       # Sample count of references to valid blocks.
system.l2cache.tags.avg_refs                 3.421186                       # Average number of references to valid blocks.
system.l2cache.tags.warmup_cycle                    0                       # Cycle when the warmup percentage was hit.
system.l2cache.tags.occ_blocks::.writebacks    35.967535                       # Average occupied blocks per requestor
system.l2cache.tags.occ_blocks::.cpu.inst  1107.871856                       # Average occupied blocks per requestor
system.l2cache.tags.occ_blocks::.cpu.data  1855.944736                       # Average occupied blocks per requestor
system.l2cache.tags.occ_blocks::.cpu.dcache.prefetcher   942.272455                       # Average occupied blocks per requestor
system.l2cache.tags.occ_blocks::.l2cache.prefetcher   153.943419                       # Average occupied blocks per requestor
system.l2cache.tags.occ_percent::.writebacks     0.008781                       # Average percentage of cache occupancy
system.l2cache.tags.occ_percent::.cpu.inst     0.270477                       # Average percentage of cache occupancy
system.l2cache.tags.occ_percent::.cpu.data     0.453112                       # Average percentage of cache occupancy
system.l2cache.tags.occ_percent::.cpu.dcache.prefetcher     0.230047                       # Average percentage of cache occupancy
system.l2cache.tags.occ_percent::.l2cache.prefetcher     0.037584                       # Average percentage of cache occupancy
system.l2cache.tags.occ_percent::total              1                       # Average percentage of cache occupancy
system.l2cache.tags.occ_task_id_blocks::1022         1032                       # Occupied blocks per task id
system.l2cache.tags.occ_task_id_blocks::1024         3064                       # Occupied blocks per task id
system.l2cache.tags.age_task_id_blocks_1022::0           11                       # Occupied blocks per task id
system.l2cache.tags.age_task_id_blocks_1022::1           53                       # Occupied blocks per task id
system.l2cache.tags.age_task_id_blocks_1022::2          939                       # Occupied blocks per task id
system.l2cache.tags.age_task_id_blocks_1022::3           29                       # Occupied blocks per task id
system.l2cache.tags.age_task_id_blocks_1024::0          168                       # Occupied blocks per task id
system.l2cache.tags.age_task_id_blocks_1024::1          411                       # Occupied blocks per task id
system.l2cache.tags.age_task_id_blocks_1024::2         2362                       # Occupied blocks per task id
system.l2cache.tags.age_task_id_blocks_1024::3          123                       # Occupied blocks per task id
system.l2cache.tags.occ_task_id_percent::1022     0.251953                       # Percentage of cache occupancy per task id
system.l2cache.tags.occ_task_id_percent::1024     0.748047                       # Percentage of cache occupancy per task id
system.l2cache.tags.tag_accesses                30067                       # Number of tag accesses
system.l2cache.tags.data_accesses               30067                       # Number of data accesses
system.mem_ctrl.pwrStateResidencyTicks::UNDEFINED     89288800                       # Cumulative time (in ticks) in various power states
system.mem_ctrl.bytes_read::.cpu.inst           25344                       # Number of bytes read from this memory
system.mem_ctrl.bytes_read::.cpu.data           11264                       # Number of bytes read from this memory
system.mem_ctrl.bytes_read::.cpu.dcache.prefetcher         3904                       # Number of bytes read from this memory
system.mem_ctrl.bytes_read::.l2cache.prefetcher          128                       # Number of bytes read from this memory
system.mem_ctrl.bytes_read::total               40640                       # Number of bytes read from this memory
system.mem_ctrl.bytes_inst_read::.cpu.inst        25344                       # Number of instructions bytes read from this memory
system.mem_ctrl.bytes_inst_read::total          25344                       # Number of instructions bytes read from this memory
system.mem_ctrl.bytes_written::.writebacks         2176                       # Number of bytes written to this memory
system.mem_ctrl.bytes_written::total             2176                       # Number of bytes written to this memory
system.mem_ctrl.num_reads::.cpu.inst              396                       # Number of read requests responded to by this memory
system.mem_ctrl.num_reads::.cpu.data              176                       # Number of read requests responded to by this memory
system.mem_ctrl.num_reads::.cpu.dcache.prefetcher           61                       # Number of read requests responded to by this memory
system.mem_ctrl.num_reads::.l2cache.prefetcher            2                       # Number of read requests responded to by this memory
system.mem_ctrl.num_reads::total                  635                       # Number of read requests responded to by this memory
system.mem_ctrl.num_writes::.writebacks            34                       # Number of write requests responded to by this memory
system.mem_ctrl.num_writes::total                  34                       # Number of write requests responded to by this memory
system.mem_ctrl.bw_read::.cpu.inst          283842990                       # Total read bandwidth from this memory (bytes/s)
system.mem_ctrl.bw_read::.cpu.data          126152440                       # Total read bandwidth from this memory (bytes/s)
system.mem_ctrl.bw_read::.cpu.dcache.prefetcher     43723289                       # Total read bandwidth from this memory (bytes/s)
system.mem_ctrl.bw_read::.l2cache.prefetcher      1433550                       # Total read bandwidth from this memory (bytes/s)
system.mem_ctrl.bw_read::total              455152270                       # Total read bandwidth from this memory (bytes/s)
system.mem_ctrl.bw_inst_read::.cpu.inst     283842990                       # Instruction read bandwidth from this memory (bytes/s)
system.mem_ctrl.bw_inst_read::total         283842990                       # Instruction read bandwidth from this memory (bytes/s)
system.mem_ctrl.bw_write::.writebacks        24370358                       # Write bandwidth from this memory (bytes/s)
system.mem_ctrl.bw_write::total              24370358                       # Write bandwidth from this memory (bytes/s)
system.mem_ctrl.bw_total::.writebacks        24370358                       # Total bandwidth to/from this memory (bytes/s)
system.mem_ctrl.bw_total::.cpu.inst         283842990                       # Total bandwidth to/from this memory (bytes/s)
system.mem_ctrl.bw_total::.cpu.data         126152440                       # Total bandwidth to/from this memory (bytes/s)
system.mem_ctrl.bw_total::.cpu.dcache.prefetcher     43723289                       # Total bandwidth to/from this memory (bytes/s)
system.mem_ctrl.bw_total::.l2cache.prefetcher      1433550                       # Total bandwidth to/from this memory (bytes/s)
system.mem_ctrl.bw_total::total             479522628                       # Total bandwidth to/from this memory (bytes/s)

---------- End Simulation Statistics   ----------
