
---------- Begin Simulation Statistics ----------
final_tick                                 1078786000                       # Number of ticks from beginning of simulation (restored from checkpoints and never reset)
host_inst_rate                                 172422                       # Simulator instruction rate (inst/s)
host_mem_usage                                4402744                       # Number of bytes of host memory used
host_op_rate                                   299538                       # Simulator op (including micro ops) rate (op/s)
host_seconds                                    11.92                       # Real time elapsed on the host
host_tick_rate                               90483788                       # Simulator tick rate (ticks/s)
sim_freq                                 1000000000000                       # Frequency of simulated ticks
sim_insts                                     2055677                       # Number of instructions simulated
sim_ops                                       3571213                       # Number of ops (including micro ops) simulated
sim_seconds                                  0.001079                       # Number of seconds simulated
sim_ticks                                  1078786000                       # Number of ticks simulated
system.cpu.branchPred.BTBCorrect                    0                       # Number of correct BTB predictions (this stat may not work properly.
system.cpu.branchPred.BTBHitPct              0.000000                       # BTB Hit Percentage
system.cpu.branchPred.BTBHits                       0                       # Number of BTB hits
system.cpu.branchPred.BTBLookups               430580                       # Number of BTB lookups
system.cpu.branchPred.RASInCorrect                  7                       # Number of incorrect RAS predictions.
system.cpu.branchPred.condIncorrect             24119                       # Number of conditional branches incorrect
system.cpu.branchPred.condPredicted            459691                       # Number of conditional branches predicted
system.cpu.branchPred.indirectHits             236107                       # Number of indirect target hits.
system.cpu.branchPred.indirectLookups          430580                       # Number of indirect predictor lookups.
system.cpu.branchPred.indirectMisses           194473                       # Number of indirect misses.
system.cpu.branchPred.lookups                  485855                       # Number of BP lookups
system.cpu.branchPred.usedRAS                   11183                       # Number of times the RAS was used to get a target.
system.cpu.branchPredindirectMispredicted        12191                       # Number of mispredicted indirect branches.
system.cpu.cc_regfile_reads                   2350154                       # number of cc regfile reads
system.cpu.cc_regfile_writes                  1930171                       # number of cc regfile writes
system.cpu.commit.amos                              0                       # Number of atomic instructions committed
system.cpu.commit.branchMispredicts             24213                       # The number of times a branch was mispredicted
system.cpu.commit.branches                     342762                       # Number of branches committed
system.cpu.commit.bw_lim_events                593448                       # number cycles where commit BW limit reached
system.cpu.commit.commitNonSpecStalls             732                       # The number of times commit has been forced to stall to communicate backwards
system.cpu.commit.commitSquashedInsts          876160                       # The number of squashed insts skipped by commit
system.cpu.commit.committedInsts              2055677                       # Number of instructions committed
system.cpu.commit.committedOps                3571213                       # Number of ops (including micro ops) committed
system.cpu.commit.committed_per_cycle::samples      2309767                       # Number of insts commited each cycle
system.cpu.commit.committed_per_cycle::mean     1.546136                       # Number of insts commited each cycle
system.cpu.commit.committed_per_cycle::stdev     1.724703                       # Number of insts commited each cycle
system.cpu.commit.committed_per_cycle::underflows            0      0.00%      0.00% # Number of insts commited each cycle
system.cpu.commit.committed_per_cycle::0      1141994     49.44%     49.44% # Number of insts commited each cycle
system.cpu.commit.committed_per_cycle::1       177942      7.70%     57.15% # Number of insts commited each cycle
system.cpu.commit.committed_per_cycle::2       169670      7.35%     64.49% # Number of insts commited each cycle
system.cpu.commit.committed_per_cycle::3       226713      9.82%     74.31% # Number of insts commited each cycle
system.cpu.commit.committed_per_cycle::4       593448     25.69%    100.00% # Number of insts commited each cycle
system.cpu.commit.committed_per_cycle::overflows            0      0.00%    100.00% # Number of insts commited each cycle
system.cpu.commit.committed_per_cycle::min_value            0                       # Number of insts commited each cycle
system.cpu.commit.committed_per_cycle::max_value            4                       # Number of insts commited each cycle
system.cpu.commit.committed_per_cycle::total      2309767                       # Number of insts commited each cycle
system.cpu.commit.fp_insts                      72876                       # Number of committed floating point instructions.
system.cpu.commit.function_calls                 9460                       # Number of function calls committed.
system.cpu.commit.int_insts                   3516991                       # Number of committed integer instructions.
system.cpu.commit.loads                        488202                       # Number of loads committed
system.cpu.commit.membars                           1                       # Number of memory barriers committed
system.cpu.commit.op_class_0::No_OpClass        20185      0.57%      0.57% # Class of committed instruction
system.cpu.commit.op_class_0::IntAlu          2812303     78.75%     79.31% # Class of committed instruction
system.cpu.commit.op_class_0::IntMult            1787      0.05%     79.36% # Class of committed instruction
system.cpu.commit.op_class_0::IntDiv            37816      1.06%     80.42% # Class of committed instruction
system.cpu.commit.op_class_0::FloatAdd           2834      0.08%     80.50% # Class of committed instruction
system.cpu.commit.op_class_0::FloatCmp              0      0.00%     80.50% # Class of committed instruction
system.cpu.commit.op_class_0::FloatCvt           1200      0.03%     80.54% # Class of committed instruction
system.cpu.commit.op_class_0::FloatMult             0      0.00%     80.54% # Class of committed instruction
system.cpu.commit.op_class_0::FloatMultAcc            0      0.00%     80.54% # Class of committed instruction
system.cpu.commit.op_class_0::FloatDiv              0      0.00%     80.54% # Class of committed instruction
system.cpu.commit.op_class_0::FloatMisc             0      0.00%     80.54% # Class of committed instruction
system.cpu.commit.op_class_0::FloatSqrt             0      0.00%     80.54% # Class of committed instruction
system.cpu.commit.op_class_0::SimdAdd            6184      0.17%     80.71% # Class of committed instruction
system.cpu.commit.op_class_0::SimdAddAcc            0      0.00%     80.71% # Class of committed instruction
system.cpu.commit.op_class_0::SimdAlu           11124      0.31%     81.02% # Class of committed instruction
system.cpu.commit.op_class_0::SimdCmp               0      0.00%     81.02% # Class of committed instruction
system.cpu.commit.op_class_0::SimdCvt           12050      0.34%     81.36% # Class of committed instruction
system.cpu.commit.op_class_0::SimdMisc           6479      0.18%     81.54% # Class of committed instruction
system.cpu.commit.op_class_0::SimdMult              0      0.00%     81.54% # Class of committed instruction
system.cpu.commit.op_class_0::SimdMultAcc            0      0.00%     81.54% # Class of committed instruction
system.cpu.commit.op_class_0::SimdShift          1079      0.03%     81.57% # Class of committed instruction
system.cpu.commit.op_class_0::SimdShiftAcc            0      0.00%     81.57% # Class of committed instruction
system.cpu.commit.op_class_0::SimdDiv               0      0.00%     81.57% # Class of committed instruction
system.cpu.commit.op_class_0::SimdSqrt              0      0.00%     81.57% # Class of committed instruction
system.cpu.commit.op_class_0::SimdFloatAdd            0      0.00%     81.57% # Class of committed instruction
system.cpu.commit.op_class_0::SimdFloatAlu            0      0.00%     81.57% # Class of committed instruction
system.cpu.commit.op_class_0::SimdFloatCmp            0      0.00%     81.57% # Class of committed instruction
system.cpu.commit.op_class_0::SimdFloatCvt            0      0.00%     81.57% # Class of committed instruction
system.cpu.commit.op_class_0::SimdFloatDiv            0      0.00%     81.57% # Class of committed instruction
system.cpu.commit.op_class_0::SimdFloatMisc            0      0.00%     81.57% # Class of committed instruction
system.cpu.commit.op_class_0::SimdFloatMult            0      0.00%     81.57% # Class of committed instruction
system.cpu.commit.op_class_0::SimdFloatMultAcc            0      0.00%     81.57% # Class of committed instruction
system.cpu.commit.op_class_0::SimdFloatSqrt            0      0.00%     81.57% # Class of committed instruction
system.cpu.commit.op_class_0::SimdReduceAdd            0      0.00%     81.57% # Class of committed instruction
system.cpu.commit.op_class_0::SimdReduceAlu            0      0.00%     81.57% # Class of committed instruction
system.cpu.commit.op_class_0::SimdReduceCmp            0      0.00%     81.57% # Class of committed instruction
system.cpu.commit.op_class_0::SimdFloatReduceAdd            0      0.00%     81.57% # Class of committed instruction
system.cpu.commit.op_class_0::SimdFloatReduceCmp            0      0.00%     81.57% # Class of committed instruction
system.cpu.commit.op_class_0::SimdAes               0      0.00%     81.57% # Class of committed instruction
system.cpu.commit.op_class_0::SimdAesMix            0      0.00%     81.57% # Class of committed instruction
system.cpu.commit.op_class_0::SimdSha1Hash            0      0.00%     81.57% # Class of committed instruction
system.cpu.commit.op_class_0::SimdSha1Hash2            0      0.00%     81.57% # Class of committed instruction
system.cpu.commit.op_class_0::SimdSha256Hash            0      0.00%     81.57% # Class of committed instruction
system.cpu.commit.op_class_0::SimdSha256Hash2            0      0.00%     81.57% # Class of committed instruction
system.cpu.commit.op_class_0::SimdShaSigma2            0      0.00%     81.57% # Class of committed instruction
system.cpu.commit.op_class_0::SimdShaSigma3            0      0.00%     81.57% # Class of committed instruction
system.cpu.commit.op_class_0::SimdPredAlu            0      0.00%     81.57% # Class of committed instruction
system.cpu.commit.op_class_0::MemRead          469164     13.14%     94.71% # Class of committed instruction
system.cpu.commit.op_class_0::MemWrite         157901      4.42%     99.13% # Class of committed instruction
system.cpu.commit.op_class_0::FloatMemRead        19038      0.53%     99.66% # Class of committed instruction
system.cpu.commit.op_class_0::FloatMemWrite        12069      0.34%    100.00% # Class of committed instruction
system.cpu.commit.op_class_0::IprAccess             0      0.00%    100.00% # Class of committed instruction
system.cpu.commit.op_class_0::InstPrefetch            0      0.00%    100.00% # Class of committed instruction
system.cpu.commit.op_class_0::total           3571213                       # Class of committed instruction
system.cpu.commit.refs                         658172                       # Number of memory references committed
system.cpu.commit.swp_count                         0                       # Number of s/w prefetches committed
system.cpu.commit.vec_insts                         0                       # Number of committed Vector instructions.
system.cpu.committedInsts                     2055677                       # Number of Instructions Simulated
system.cpu.committedOps                       3571213                       # Number of Ops (including micro ops) Simulated
system.cpu.cpi                               1.311960                       # CPI: Cycles Per Instruction
system.cpu.cpi_total                         1.311960                       # CPI: Total CPI of All Threads
system.cpu.dcache.prefetcher.num_hwpf_issued         8218                       # number of hwpf issued
system.cpu.dcache.prefetcher.pfBufferHit        34065                       # number of redundant prefetches already in prefetch queue
system.cpu.dcache.prefetcher.pfIdentified        48708                       # number of prefetch candidates identified
system.cpu.dcache.prefetcher.pfInCache              0                       # number of redundant prefetches already in cache/mshr dropped
system.cpu.dcache.prefetcher.pfRemovedFull            0                       # number of prefetches dropped due to prefetch queue size
system.cpu.dcache.prefetcher.pfSpanPage          4452                       # number of prefetches that crossed the page
system.cpu.decode.BlockedCycles               1015679                       # Number of cycles decode is blocked
system.cpu.decode.DecodedInsts                4663393                       # Number of instructions handled by decode
system.cpu.decode.IdleCycles                   289096                       # Number of cycles decode is idle
system.cpu.decode.RunCycles                   1131947                       # Number of cycles decode is running
system.cpu.decode.SquashCycles                  24276                       # Number of cycles decode is squashing
system.cpu.decode.UnblockCycles                 88245                       # Number of cycles decode is unblocking
system.cpu.dtb.rdAccesses                      570274                       # TLB accesses on read requests
system.cpu.dtb.rdMisses                          1995                       # TLB misses on read requests
system.cpu.dtb.wrAccesses                      189024                       # TLB accesses on write requests
system.cpu.dtb.wrMisses                           163                       # TLB misses on write requests
system.cpu.fetch.Branches                      485855                       # Number of branches that fetch encountered
system.cpu.fetch.CacheLines                    239171                       # Number of cache lines fetched
system.cpu.fetch.Cycles                       2199139                       # Number of cycles fetch has run and was not squashing or blocked
system.cpu.fetch.IcacheSquashes                  4553                       # Number of outstanding Icache misses that were squashed
system.cpu.fetch.Insts                        2819883                       # Number of instructions fetch has processed
system.cpu.fetch.MiscStallCycles                  120                       # Number of cycles fetch has spent waiting on interrupts, or bad addresses, or out of MSHRs
system.cpu.fetch.PendingQuiesceStallCycles           10                       # Number of stall cycles due to pending quiesce instructions
system.cpu.fetch.PendingTrapStallCycles           665                       # Number of stall cycles due to pending traps
system.cpu.fetch.SquashCycles                   48552                       # Number of cycles fetch has spent squashing
system.cpu.fetch.branchRate                  0.180149                       # Number of branch fetches per cycle
system.cpu.fetch.icacheStallCycles             325033                       # Number of cycles fetch is stalled on an Icache miss
system.cpu.fetch.predictedBranches             247290                       # Number of branches that fetch has predicted taken
system.cpu.fetch.rate                        1.045576                       # Number of inst fetches per cycle
system.cpu.fetch.rateDist::samples            2549243                       # Number of instructions fetched each cycle (Total)
system.cpu.fetch.rateDist::mean              1.936969                       # Number of instructions fetched each cycle (Total)
system.cpu.fetch.rateDist::stdev             1.930920                       # Number of instructions fetched each cycle (Total)
system.cpu.fetch.rateDist::underflows               0      0.00%      0.00% # Number of instructions fetched each cycle (Total)
system.cpu.fetch.rateDist::0                  1211643     47.53%     47.53% # Number of instructions fetched each cycle (Total)
system.cpu.fetch.rateDist::1                    72854      2.86%     50.39% # Number of instructions fetched each cycle (Total)
system.cpu.fetch.rateDist::2                    59271      2.33%     52.71% # Number of instructions fetched each cycle (Total)
system.cpu.fetch.rateDist::3                    75491      2.96%     55.67% # Number of instructions fetched each cycle (Total)
system.cpu.fetch.rateDist::4                  1129984     44.33%    100.00% # Number of instructions fetched each cycle (Total)
system.cpu.fetch.rateDist::overflows                0      0.00%    100.00% # Number of instructions fetched each cycle (Total)
system.cpu.fetch.rateDist::min_value                0                       # Number of instructions fetched each cycle (Total)
system.cpu.fetch.rateDist::max_value                4                       # Number of instructions fetched each cycle (Total)
system.cpu.fetch.rateDist::total              2549243                       # Number of instructions fetched each cycle (Total)
system.cpu.fp_regfile_reads                    117976                       # number of floating regfile reads
system.cpu.fp_regfile_writes                    64813                       # number of floating regfile writes
system.cpu.fuPool.fu_ticks_busy::IntALU(0)    215763200                       # Total ticks fu was busy
system.cpu.fuPool.fu_ticks_busy::IntALU(1)    215763200                       # Total ticks fu was busy
system.cpu.fuPool.fu_ticks_busy::IntALU(2)    215763200                       # Total ticks fu was busy
system.cpu.fuPool.fu_ticks_busy::IntALU(3)    215763200                       # Total ticks fu was busy
system.cpu.fuPool.fu_ticks_busy::IntALU(4)    215763200                       # Total ticks fu was busy
system.cpu.fuPool.fu_ticks_busy::IntALU(5)    215762800                       # Total ticks fu was busy
system.cpu.fuPool.fu_ticks_busy::IntMultDiv(0)      8691600                       # Total ticks fu was busy
system.cpu.fuPool.fu_ticks_busy::IntMultDiv(1)      8691200                       # Total ticks fu was busy
system.cpu.fuPool.fu_ticks_busy::FP_ALU(0)       551200                       # Total ticks fu was busy
system.cpu.fuPool.fu_ticks_busy::FP_ALU(1)       550800                       # Total ticks fu was busy
system.cpu.fuPool.fu_ticks_busy::FP_ALU(2)       550400                       # Total ticks fu was busy
system.cpu.fuPool.fu_ticks_busy::FP_ALU(3)       550400                       # Total ticks fu was busy
system.cpu.fuPool.fu_ticks_busy::FP_MultDiv(0)            0                       # Total ticks fu was busy
system.cpu.fuPool.fu_ticks_busy::FP_MultDiv(1)            0                       # Total ticks fu was busy
system.cpu.fuPool.fu_ticks_busy::SIMD_Unit(0)      4435200                       # Total ticks fu was busy
system.cpu.fuPool.fu_ticks_busy::SIMD_Unit(1)      4389600                       # Total ticks fu was busy
system.cpu.fuPool.fu_ticks_busy::SIMD_Unit(2)      4405600                       # Total ticks fu was busy
system.cpu.fuPool.fu_ticks_busy::SIMD_Unit(3)      4430400                       # Total ticks fu was busy
system.cpu.fuPool.fu_ticks_busy::PredALU(0)            0                       # Total ticks fu was busy
system.cpu.fuPool.fu_ticks_busy::RdWrPort(0)     77386400                       # Total ticks fu was busy
system.cpu.fuPool.fu_ticks_busy::RdWrPort(1)     77414400                       # Total ticks fu was busy
system.cpu.fuPool.fu_ticks_busy::RdWrPort(2)     77464000                       # Total ticks fu was busy
system.cpu.fuPool.fu_ticks_busy::RdWrPort(3)     77427200                       # Total ticks fu was busy
system.cpu.fuPool.fu_ticks_busy::IprPort(0)            0                       # Total ticks fu was busy
system.cpu.fuPool.fu_ticks_busy::total     1641517200                       # Total ticks fu was busy
system.cpu.icache.prefetcher.num_hwpf_issued            0                       # number of hwpf issued
system.cpu.icache.prefetcher.pfBufferHit            0                       # number of redundant prefetches already in prefetch queue
system.cpu.icache.prefetcher.pfIdentified            0                       # number of prefetch candidates identified
system.cpu.icache.prefetcher.pfInCache              0                       # number of redundant prefetches already in cache/mshr dropped
system.cpu.icache.prefetcher.pfRemovedFull            0                       # number of prefetches dropped due to prefetch queue size
system.cpu.icache.prefetcher.pfSpanPage             0                       # number of prefetches that crossed the page
system.cpu.idleCycles                          147723                       # Total number of cycles that the CPU has spent unscheduled due to idling
system.cpu.iew.branchMispredicts                28662                       # Number of branch mispredicts detected at execute
system.cpu.iew.exec_branches                   372545                       # Number of branches executed
system.cpu.iew.exec_nop                             0                       # number of nop insts executed
system.cpu.iew.exec_rate                     1.518601                       # Inst execution rate
system.cpu.iew.exec_refs                       761199                       # number of memory reference insts executed
system.cpu.iew.exec_stores                     189016                       # Number of stores executed
system.cpu.iew.exec_swp                             0                       # number of swp insts executed
system.cpu.iew.iewBlockCycles                  689684                       # Number of cycles IEW is blocking
system.cpu.iew.iewDispLoadInsts                602500                       # Number of dispatched load instructions
system.cpu.iew.iewDispNonSpecInsts                910                       # Number of dispatched non-speculative instructions
system.cpu.iew.iewDispSquashedInsts               560                       # Number of squashed instructions skipped by dispatch
system.cpu.iew.iewDispStoreInsts               199216                       # Number of dispatched store instructions
system.cpu.iew.iewDispatchedInsts             4447326                       # Number of instructions dispatched to IQ
system.cpu.iew.iewExecLoadInsts                572183                       # Number of load instructions executed
system.cpu.iew.iewExecSquashedInsts             34335                       # Number of squashed instructions skipped in execute
system.cpu.iew.iewExecutedInsts               4095615                       # Number of executed instructions
system.cpu.iew.iewIQFullEvents                   3303                       # Number of times the IQ has become full, causing a stall
system.cpu.iew.iewIdleCycles                        0                       # Number of cycles IEW is idle
system.cpu.iew.iewLSQFullEvents                  8850                       # Number of times the LSQ has become full, causing a stall
system.cpu.iew.iewSquashCycles                  24276                       # Number of cycles IEW is squashing
system.cpu.iew.iewUnblockCycles                 15044                       # Number of cycles IEW is unblocking
system.cpu.iew.lsq.thread0.blockedLoads             0                       # Number of blocked loads due to partial load-store forwarding
system.cpu.iew.lsq.thread0.cacheBlocked           635                       # Number of times an access to memory failed due to the cache being blocked
system.cpu.iew.lsq.thread0.forwLoads            39273                       # Number of loads that had data forwarded from stores
system.cpu.iew.lsq.thread0.ignoredResponses          228                       # Number of memory responses ignored because the instruction is squashed
system.cpu.iew.lsq.thread0.invAddrLoads             0                       # Number of loads ignored due to an invalid address
system.cpu.iew.lsq.thread0.invAddrSwpfs             0                       # Number of software prefetches ignored due to an invalid address
system.cpu.iew.lsq.thread0.memOrderViolation           72                       # Number of memory ordering violations
system.cpu.iew.lsq.thread0.rescheduledLoads            0                       # Number of loads that were rescheduled
system.cpu.iew.lsq.thread0.squashedLoads       114296                       # Number of loads squashed
system.cpu.iew.lsq.thread0.squashedStores        29245                       # Number of stores squashed
system.cpu.iew.memOrderViolationEvents             72                       # Number of memory order violations
system.cpu.iew.predictedNotTakenIncorrect        20693                       # Number of branches that were predicted not taken incorrectly
system.cpu.iew.predictedTakenIncorrect           7969                       # Number of branches that were predicted taken incorrectly
system.cpu.iew.wb_consumers                   5752301                       # num instructions consuming a value
system.cpu.iew.wb_count                       4073606                       # cumulative count of insts written-back
system.cpu.iew.wb_fanout                     0.566412                       # average fanout of values written-back
system.cpu.iew.wb_producers                   3258175                       # num instructions producing a value
system.cpu.iew.wb_rate                       1.510440                       # insts written-back per cycle
system.cpu.iew.wb_sent                        4080586                       # cumulative count of insts sent to commit
system.cpu.int_regfile_reads                  6350048                       # number of integer regfile reads
system.cpu.int_regfile_writes                 3524185                       # number of integer regfile writes
system.cpu.ipc                               0.762218                       # IPC: Instructions Per Cycle
system.cpu.ipc_total                         0.762218                       # IPC: Total IPC of All Threads
system.cpu.iq.FU_type_0::No_OpClass             26157      0.63%      0.63% # Type of FU issued
system.cpu.iq.FU_type_0::IntAlu               3236448     78.37%     79.00% # Type of FU issued
system.cpu.iq.FU_type_0::IntMult                 1810      0.04%     79.04% # Type of FU issued
system.cpu.iq.FU_type_0::IntDiv                 41647      1.01%     80.05% # Type of FU issued
system.cpu.iq.FU_type_0::FloatAdd                4257      0.10%     80.15% # Type of FU issued
system.cpu.iq.FU_type_0::FloatCmp                   0      0.00%     80.15% # Type of FU issued
system.cpu.iq.FU_type_0::FloatCvt                1250      0.03%     80.18% # Type of FU issued
system.cpu.iq.FU_type_0::FloatMult                  0      0.00%     80.18% # Type of FU issued
system.cpu.iq.FU_type_0::FloatMultAcc               0      0.00%     80.18% # Type of FU issued
system.cpu.iq.FU_type_0::FloatDiv                   0      0.00%     80.18% # Type of FU issued
system.cpu.iq.FU_type_0::FloatMisc                  0      0.00%     80.18% # Type of FU issued
system.cpu.iq.FU_type_0::FloatSqrt                  0      0.00%     80.18% # Type of FU issued
system.cpu.iq.FU_type_0::SimdAdd                 6755      0.16%     80.35% # Type of FU issued
system.cpu.iq.FU_type_0::SimdAddAcc                 0      0.00%     80.35% # Type of FU issued
system.cpu.iq.FU_type_0::SimdAlu                14707      0.36%     80.70% # Type of FU issued
system.cpu.iq.FU_type_0::SimdCmp                    0      0.00%     80.70% # Type of FU issued
system.cpu.iq.FU_type_0::SimdCvt                13632      0.33%     81.03% # Type of FU issued
system.cpu.iq.FU_type_0::SimdMisc                7003      0.17%     81.20% # Type of FU issued
system.cpu.iq.FU_type_0::SimdMult                   0      0.00%     81.20% # Type of FU issued
system.cpu.iq.FU_type_0::SimdMultAcc                0      0.00%     81.20% # Type of FU issued
system.cpu.iq.FU_type_0::SimdShift               2055      0.05%     81.25% # Type of FU issued
system.cpu.iq.FU_type_0::SimdShiftAcc               0      0.00%     81.25% # Type of FU issued
system.cpu.iq.FU_type_0::SimdDiv                    0      0.00%     81.25% # Type of FU issued
system.cpu.iq.FU_type_0::SimdSqrt                   0      0.00%     81.25% # Type of FU issued
system.cpu.iq.FU_type_0::SimdFloatAdd               0      0.00%     81.25% # Type of FU issued
system.cpu.iq.FU_type_0::SimdFloatAlu               0      0.00%     81.25% # Type of FU issued
system.cpu.iq.FU_type_0::SimdFloatCmp               0      0.00%     81.25% # Type of FU issued
system.cpu.iq.FU_type_0::SimdFloatCvt               0      0.00%     81.25% # Type of FU issued
system.cpu.iq.FU_type_0::SimdFloatDiv               0      0.00%     81.25% # Type of FU issued
system.cpu.iq.FU_type_0::SimdFloatMisc              0      0.00%     81.25% # Type of FU issued
system.cpu.iq.FU_type_0::SimdFloatMult              0      0.00%     81.25% # Type of FU issued
system.cpu.iq.FU_type_0::SimdFloatMultAcc            0      0.00%     81.25% # Type of FU issued
system.cpu.iq.FU_type_0::SimdFloatSqrt              0      0.00%     81.25% # Type of FU issued
system.cpu.iq.FU_type_0::SimdReduceAdd              0      0.00%     81.25% # Type of FU issued
system.cpu.iq.FU_type_0::SimdReduceAlu              0      0.00%     81.25% # Type of FU issued
system.cpu.iq.FU_type_0::SimdReduceCmp              0      0.00%     81.25% # Type of FU issued
system.cpu.iq.FU_type_0::SimdFloatReduceAdd            0      0.00%     81.25% # Type of FU issued
system.cpu.iq.FU_type_0::SimdFloatReduceCmp            0      0.00%     81.25% # Type of FU issued
system.cpu.iq.FU_type_0::SimdAes                    0      0.00%     81.25% # Type of FU issued
system.cpu.iq.FU_type_0::SimdAesMix                 0      0.00%     81.25% # Type of FU issued
system.cpu.iq.FU_type_0::SimdSha1Hash               0      0.00%     81.25% # Type of FU issued
system.cpu.iq.FU_type_0::SimdSha1Hash2              0      0.00%     81.25% # Type of FU issued
system.cpu.iq.FU_type_0::SimdSha256Hash             0      0.00%     81.25% # Type of FU issued
system.cpu.iq.FU_type_0::SimdSha256Hash2            0      0.00%     81.25% # Type of FU issued
system.cpu.iq.FU_type_0::SimdShaSigma2              0      0.00%     81.25% # Type of FU issued
system.cpu.iq.FU_type_0::SimdShaSigma3              0      0.00%     81.25% # Type of FU issued
system.cpu.iq.FU_type_0::SimdPredAlu                0      0.00%     81.25% # Type of FU issued
system.cpu.iq.FU_type_0::MemRead               557883     13.51%     94.76% # Type of FU issued
system.cpu.iq.FU_type_0::MemWrite              178263      4.32%     99.08% # Type of FU issued
system.cpu.iq.FU_type_0::FloatMemRead           24725      0.60%     99.68% # Type of FU issued
system.cpu.iq.FU_type_0::FloatMemWrite          13361      0.32%    100.00% # Type of FU issued
system.cpu.iq.FU_type_0::IprAccess                  0      0.00%    100.00% # Type of FU issued
system.cpu.iq.FU_type_0::InstPrefetch               0      0.00%    100.00% # Type of FU issued
system.cpu.iq.FU_type_0::total                4129953                       # Type of FU issued
system.cpu.iq.fp_alu_accesses                   88706                       # Number of floating point alu accesses
system.cpu.iq.fp_inst_queue_reads              178561                       # Number of floating instruction queue reads
system.cpu.iq.fp_inst_queue_wakeup_accesses        85381                       # Number of floating instruction queue wakeup accesses
system.cpu.iq.fp_inst_queue_writes             127332                       # Number of floating instruction queue writes
system.cpu.iq.fu_busy_cnt                           0                       # FU busy when requested
system.cpu.iq.fu_busy_rate                          0                       # FU busy rate (busy events/executed inst)
system.cpu.iq.fu_full::No_OpClass                   0                       # attempts to use FU when none available
system.cpu.iq.fu_full::IntAlu                       0                       # attempts to use FU when none available
system.cpu.iq.fu_full::IntMult                      0                       # attempts to use FU when none available
system.cpu.iq.fu_full::IntDiv                       0                       # attempts to use FU when none available
system.cpu.iq.fu_full::FloatAdd                     0                       # attempts to use FU when none available
system.cpu.iq.fu_full::FloatCmp                     0                       # attempts to use FU when none available
system.cpu.iq.fu_full::FloatCvt                     0                       # attempts to use FU when none available
system.cpu.iq.fu_full::FloatMult                    0                       # attempts to use FU when none available
system.cpu.iq.fu_full::FloatMultAcc                 0                       # attempts to use FU when none available
system.cpu.iq.fu_full::FloatDiv                     0                       # attempts to use FU when none available
system.cpu.iq.fu_full::FloatMisc                    0                       # attempts to use FU when none available
system.cpu.iq.fu_full::FloatSqrt                    0                       # attempts to use FU when none available
system.cpu.iq.fu_full::SimdAdd                      0                       # attempts to use FU when none available
system.cpu.iq.fu_full::SimdAddAcc                   0                       # attempts to use FU when none available
system.cpu.iq.fu_full::SimdAlu                      0                       # attempts to use FU when none available
system.cpu.iq.fu_full::SimdCmp                      0                       # attempts to use FU when none available
system.cpu.iq.fu_full::SimdCvt                      0                       # attempts to use FU when none available
system.cpu.iq.fu_full::SimdMisc                     0                       # attempts to use FU when none available
system.cpu.iq.fu_full::SimdMult                     0                       # attempts to use FU when none available
system.cpu.iq.fu_full::SimdMultAcc                  0                       # attempts to use FU when none available
system.cpu.iq.fu_full::SimdShift                    0                       # attempts to use FU when none available
system.cpu.iq.fu_full::SimdShiftAcc                 0                       # attempts to use FU when none available
system.cpu.iq.fu_full::SimdDiv                      0                       # attempts to use FU when none available
system.cpu.iq.fu_full::SimdSqrt                     0                       # attempts to use FU when none available
system.cpu.iq.fu_full::SimdFloatAdd                 0                       # attempts to use FU when none available
system.cpu.iq.fu_full::SimdFloatAlu                 0                       # attempts to use FU when none available
system.cpu.iq.fu_full::SimdFloatCmp                 0                       # attempts to use FU when none available
system.cpu.iq.fu_full::SimdFloatCvt                 0                       # attempts to use FU when none available
system.cpu.iq.fu_full::SimdFloatDiv                 0                       # attempts to use FU when none available
system.cpu.iq.fu_full::SimdFloatMisc                0                       # attempts to use FU when none available
system.cpu.iq.fu_full::SimdFloatMult                0                       # attempts to use FU when none available
system.cpu.iq.fu_full::SimdFloatMultAcc             0                       # attempts to use FU when none available
system.cpu.iq.fu_full::SimdFloatSqrt                0                       # attempts to use FU when none available
system.cpu.iq.fu_full::SimdReduceAdd                0                       # attempts to use FU when none available
system.cpu.iq.fu_full::SimdReduceAlu                0                       # attempts to use FU when none available
system.cpu.iq.fu_full::SimdReduceCmp                0                       # attempts to use FU when none available
system.cpu.iq.fu_full::SimdFloatReduceAdd            0                       # attempts to use FU when none available
system.cpu.iq.fu_full::SimdFloatReduceCmp            0                       # attempts to use FU when none available
system.cpu.iq.fu_full::SimdAes                      0                       # attempts to use FU when none available
system.cpu.iq.fu_full::SimdAesMix                   0                       # attempts to use FU when none available
system.cpu.iq.fu_full::SimdSha1Hash                 0                       # attempts to use FU when none available
system.cpu.iq.fu_full::SimdSha1Hash2                0                       # attempts to use FU when none available
system.cpu.iq.fu_full::SimdSha256Hash               0                       # attempts to use FU when none available
system.cpu.iq.fu_full::SimdSha256Hash2              0                       # attempts to use FU when none available
system.cpu.iq.fu_full::SimdShaSigma2                0                       # attempts to use FU when none available
system.cpu.iq.fu_full::SimdShaSigma3                0                       # attempts to use FU when none available
system.cpu.iq.fu_full::SimdPredAlu                  0                       # attempts to use FU when none available
system.cpu.iq.fu_full::MemRead                      0                       # attempts to use FU when none available
system.cpu.iq.fu_full::MemWrite                     0                       # attempts to use FU when none available
system.cpu.iq.fu_full::FloatMemRead                 0                       # attempts to use FU when none available
system.cpu.iq.fu_full::FloatMemWrite                0                       # attempts to use FU when none available
system.cpu.iq.fu_full::IprAccess                    0                       # attempts to use FU when none available
system.cpu.iq.fu_full::InstPrefetch                 0                       # attempts to use FU when none available
system.cpu.iq.int_alu_accesses                4015090                       # Number of integer alu accesses
system.cpu.iq.int_inst_queue_reads           10648810                       # Number of integer instruction queue reads
system.cpu.iq.int_inst_queue_wakeup_accesses      3988225                       # Number of integer instruction queue wakeup accesses
system.cpu.iq.int_inst_queue_writes           5196168                       # Number of integer instruction queue writes
system.cpu.iq.iqInstsAdded                    4446251                       # Number of instructions added to the IQ (excludes non-spec)
system.cpu.iq.iqInstsIssued                   4129953                       # Number of instructions issued
system.cpu.iq.iqNonSpecInstsAdded                1075                       # Number of non-speculative instructions added to the IQ
system.cpu.iq.iqSquashedInstsExamined          876102                       # Number of squashed instructions iterated over during squash; mainly for profiling
system.cpu.iq.iqSquashedInstsIssued             18225                       # Number of squashed instructions issued
system.cpu.iq.iqSquashedNonSpecRemoved            343                       # Number of squashed non-spec instructions that were removed
system.cpu.iq.iqSquashedOperandsExamined      1311536                       # Number of squashed operands that are examined and possibly removed from graph
system.cpu.iq.issued_per_cycle::samples       2549243                       # Number of insts issued each cycle
system.cpu.iq.issued_per_cycle::mean         1.620070                       # Number of insts issued each cycle
system.cpu.iq.issued_per_cycle::stdev        1.670336                       # Number of insts issued each cycle
system.cpu.iq.issued_per_cycle::underflows            0      0.00%      0.00% # Number of insts issued each cycle
system.cpu.iq.issued_per_cycle::0             1154774     45.30%     45.30% # Number of insts issued each cycle
system.cpu.iq.issued_per_cycle::1              172173      6.75%     52.05% # Number of insts issued each cycle
system.cpu.iq.issued_per_cycle::2              297087     11.65%     63.71% # Number of insts issued each cycle
system.cpu.iq.issued_per_cycle::3              337230     13.23%     76.94% # Number of insts issued each cycle
system.cpu.iq.issued_per_cycle::4              587979     23.06%    100.00% # Number of insts issued each cycle
system.cpu.iq.issued_per_cycle::overflows            0      0.00%    100.00% # Number of insts issued each cycle
system.cpu.iq.issued_per_cycle::min_value            0                       # Number of insts issued each cycle
system.cpu.iq.issued_per_cycle::max_value            4                       # Number of insts issued each cycle
system.cpu.iq.issued_per_cycle::total         2549243                       # Number of insts issued each cycle
system.cpu.iq.rate                           1.531333                       # Inst issue rate
system.cpu.iq.vec_alu_accesses                      0                       # Number of vector alu accesses
system.cpu.iq.vec_inst_queue_reads                  0                       # Number of vector instruction queue reads
system.cpu.iq.vec_inst_queue_wakeup_accesses            0                       # Number of vector instruction queue wakeup accesses
system.cpu.iq.vec_inst_queue_writes                 0                       # Number of vector instruction queue writes
system.cpu.itb.rdAccesses                           0                       # TLB accesses on read requests
system.cpu.itb.rdMisses                             0                       # TLB misses on read requests
system.cpu.itb.wrAccesses                      239282                       # TLB accesses on write requests
system.cpu.itb.wrMisses                           349                       # TLB misses on write requests
system.cpu.memDep0.conflictingLoads              9087                       # Number of conflicting loads.
system.cpu.memDep0.conflictingStores             2299                       # Number of conflicting stores.
system.cpu.memDep0.insertedLoads               602500                       # Number of loads inserted to the mem dependence unit.
system.cpu.memDep0.insertedStores              199216                       # Number of stores inserted to the mem dependence unit.
system.cpu.misc_regfile_reads                 1542098                       # number of misc regfile reads
system.cpu.misc_regfile_writes                    675                       # number of misc regfile writes
system.cpu.numCycles                          2696966                       # number of cpu cycles simulated
system.cpu.numWorkItemsCompleted                    0                       # number of work items this cpu completed
system.cpu.numWorkItemsStarted                      0                       # number of work items this cpu started
system.cpu.process.numSyscalls                     56                       # Number of system calls
system.cpu.rename.BlockCycles                  834756                       # Number of cycles rename is blocking
system.cpu.rename.CommittedMaps               4903014                       # Number of HB maps that are committed
system.cpu.rename.FullRegisterEvents               47                       # Number of times there has been no free registers
system.cpu.rename.IQFullEvents                  46719                       # Number of times rename has blocked due to IQ full
system.cpu.rename.IdleCycles                   339267                       # Number of cycles rename is idle
system.cpu.rename.LQFullEvents                  13002                       # Number of times rename has blocked due to LQ full
system.cpu.rename.ROBFullEvents                  4679                       # Number of times rename has blocked due to ROB full
system.cpu.rename.RenameLookups              11988632                       # Number of register rename lookups that rename has made
system.cpu.rename.RenamedInsts                4588495                       # Number of instructions processed by rename
system.cpu.rename.RenamedOperands             6285075                       # Number of destination operands rename has renamed
system.cpu.rename.RunCycles                   1161791                       # Number of cycles rename is running
system.cpu.rename.SQFullEvents                  73482                       # Number of times rename has blocked due to SQ full
system.cpu.rename.SquashCycles                  24276                       # Number of cycles rename is squashing
system.cpu.rename.UnblockCycles                169927                       # Number of cycles rename is unblocking
system.cpu.rename.UndoneMaps                  1382038                       # Number of HB maps that are undone due to squashing
system.cpu.rename.fp_rename_lookups            150742                       # Number of floating rename lookups
system.cpu.rename.int_rename_lookups          7289321                       # Number of integer rename lookups
system.cpu.rename.serializeStallCycles          19226                       # count of cycles rename stalled for serializing inst
system.cpu.rename.serializingInsts                861                       # count of serializing insts renamed
system.cpu.rename.skidInsts                    205417                       # count of insts added to the skid buffer
system.cpu.rename.tempSerializingInsts            905                       # count of temporary serializing insts renamed
system.cpu.rob.rob_reads                      6163692                       # The number of ROB reads
system.cpu.rob.rob_writes                     9135158                       # The number of ROB writes
system.cpu.timesIdled                            1469                       # Number of times that the entire CPU went into an idle state and unscheduled itself
system.l2bus.snoop_filter.hit_multi_requests           10                       # Number of requests hitting in the snoop filter with multiple (>1) holders of the requested data.
system.l2bus.snoop_filter.hit_multi_snoops            0                       # Number of snoops hitting in the snoop filter with multiple (>1) holders of the requested data.
system.l2bus.snoop_filter.hit_single_requests        18157                       # Number of requests hitting in the snoop filter with a single holder of the requested data.
system.l2bus.snoop_filter.hit_single_snoops          430                       # Number of snoops hitting in the snoop filter with a single holder of the requested data.
system.l2bus.snoop_filter.tot_requests          37594                       # Total number of requests made to the snoop filter.
system.l2bus.snoop_filter.tot_snoops              430                       # Total number of snoops made to the snoop filter.
system.l2cache.prefetcher.num_hwpf_issued          665                       # number of hwpf issued
system.l2cache.prefetcher.pfBufferHit               0                       # number of redundant prefetches already in prefetch queue
system.l2cache.prefetcher.pfIdentified            665                       # number of prefetch candidates identified
system.l2cache.prefetcher.pfInCache                 0                       # number of redundant prefetches already in cache/mshr dropped
system.l2cache.prefetcher.pfRemovedFull             0                       # number of prefetches dropped due to prefetch queue size
system.l2cache.prefetcher.pfSpanPage               99                       # number of prefetches that crossed the page
system.membus.snoop_filter.hit_multi_requests            0                       # Number of requests hitting in the snoop filter with multiple (>1) holders of the requested data.
system.membus.snoop_filter.hit_multi_snoops            0                       # Number of snoops hitting in the snoop filter with multiple (>1) holders of the requested data.
system.membus.snoop_filter.hit_single_requests         9225                       # Number of requests hitting in the snoop filter with a single holder of the requested data.
system.membus.snoop_filter.hit_single_snoops            0                       # Number of snoops hitting in the snoop filter with a single holder of the requested data.
system.membus.snoop_filter.tot_requests         22568                       # Total number of requests made to the snoop filter.
system.membus.snoop_filter.tot_snoops               0                       # Total number of snoops made to the snoop filter.
system.membus.pwrStateResidencyTicks::UNDEFINED   1078786000                       # Cumulative time (in ticks) in various power states
system.membus.trans_dist::ReadResp              12009                       # Transaction distribution
system.membus.trans_dist::WritebackDirty         1328                       # Transaction distribution
system.membus.trans_dist::CleanEvict             7897                       # Transaction distribution
system.membus.trans_dist::ReadExReq              1334                       # Transaction distribution
system.membus.trans_dist::ReadExResp             1334                       # Transaction distribution
system.membus.trans_dist::ReadSharedReq         12009                       # Transaction distribution
system.membus.pkt_count_system.l2cache.mem_side::system.mem_ctrl.port        35911                       # Packet count per connected master and slave (bytes)
system.membus.pkt_count_system.l2cache.mem_side::total        35911                       # Packet count per connected master and slave (bytes)
system.membus.pkt_count::total                  35911                       # Packet count per connected master and slave (bytes)
system.membus.pkt_size_system.l2cache.mem_side::system.mem_ctrl.port       938944                       # Cumulative packet size per connected master and slave (bytes)
system.membus.pkt_size_system.l2cache.mem_side::total       938944                       # Cumulative packet size per connected master and slave (bytes)
system.membus.pkt_size::total                  938944                       # Cumulative packet size per connected master and slave (bytes)
system.membus.snoops                                0                       # Total snoops (count)
system.membus.snoopTraffic                          0                       # Total snoop traffic (bytes)
system.membus.snoop_fanout::samples             13343                       # Request fanout histogram
system.membus.snoop_fanout::mean                    0                       # Request fanout histogram
system.membus.snoop_fanout::stdev                   0                       # Request fanout histogram
system.membus.snoop_fanout::underflows              0      0.00%      0.00% # Request fanout histogram
system.membus.snoop_fanout::0                   13343    100.00%    100.00% # Request fanout histogram
system.membus.snoop_fanout::1                       0      0.00%    100.00% # Request fanout histogram
system.membus.snoop_fanout::overflows               0      0.00%    100.00% # Request fanout histogram
system.membus.snoop_fanout::min_value               0                       # Request fanout histogram
system.membus.snoop_fanout::max_value               0                       # Request fanout histogram
system.membus.snoop_fanout::total               13343                       # Request fanout histogram
system.membus.reqLayer2.occupancy            11176675                       # Layer occupancy (ticks)
system.membus.reqLayer2.utilization               1.0                       # Layer utilization (%)
system.membus.respLayer0.occupancy           28938725                       # Layer occupancy (ticks)
system.membus.respLayer0.utilization              2.7                       # Layer utilization (%)
system.l2bus.pwrStateResidencyTicks::UNDEFINED   1078786000                       # Cumulative time (in ticks) in various power states
system.l2bus.trans_dist::ReadResp               17352                       # Transaction distribution
system.l2bus.trans_dist::WritebackDirty          4104                       # Transaction distribution
system.l2bus.trans_dist::CleanEvict             23361                       # Transaction distribution
system.l2bus.trans_dist::HardPFReq                935                       # Transaction distribution
system.l2bus.trans_dist::ReadExReq               2085                       # Transaction distribution
system.l2bus.trans_dist::ReadExResp              2085                       # Transaction distribution
system.l2bus.trans_dist::ReadSharedReq          17352                       # Transaction distribution
system.l2bus.pkt_count_system.cpu.icache.mem_side::system.l2cache.cpu_side         7589                       # Packet count per connected master and slave (bytes)
system.l2bus.pkt_count_system.cpu.dcache.mem_side::system.l2cache.cpu_side        49439                       # Packet count per connected master and slave (bytes)
system.l2bus.pkt_count::total                   57028                       # Packet count per connected master and slave (bytes)
system.l2bus.pkt_size_system.cpu.icache.mem_side::system.l2cache.cpu_side       167232                       # Cumulative packet size per connected master and slave (bytes)
system.l2bus.pkt_size_system.cpu.dcache.mem_side::system.l2cache.cpu_side      1254208                       # Cumulative packet size per connected master and slave (bytes)
system.l2bus.pkt_size::total                  1421440                       # Cumulative packet size per connected master and slave (bytes)
system.l2bus.snoops                             10246                       # Total snoops (count)
system.l2bus.snoopTraffic                       85184                       # Total snoop traffic (bytes)
system.l2bus.snoop_fanout::samples              29680                       # Request fanout histogram
system.l2bus.snoop_fanout::mean              0.014825                       # Request fanout histogram
system.l2bus.snoop_fanout::stdev             0.120853                       # Request fanout histogram
system.l2bus.snoop_fanout::underflows               0      0.00%      0.00% # Request fanout histogram
system.l2bus.snoop_fanout::0                    29240     98.52%     98.52% # Request fanout histogram
system.l2bus.snoop_fanout::1                      440      1.48%    100.00% # Request fanout histogram
system.l2bus.snoop_fanout::2                        0      0.00%    100.00% # Request fanout histogram
system.l2bus.snoop_fanout::overflows                0      0.00%    100.00% # Request fanout histogram
system.l2bus.snoop_fanout::min_value                0                       # Request fanout histogram
system.l2bus.snoop_fanout::max_value                1                       # Request fanout histogram
system.l2bus.snoop_fanout::total                29680                       # Request fanout histogram
system.l2bus.respLayer1.occupancy            20185599                       # Layer occupancy (ticks)
system.l2bus.respLayer1.utilization               1.9                       # Layer utilization (%)
system.l2bus.reqLayer0.occupancy             18699815                       # Layer occupancy (ticks)
system.l2bus.reqLayer0.utilization                1.7                       # Layer utilization (%)
system.l2bus.respLayer0.occupancy             3139599                       # Layer occupancy (ticks)
system.l2bus.respLayer0.utilization               0.3                       # Layer utilization (%)
system.clk_domain.clock                           400                       # Clock period in ticks
system.clk_domain.voltage_domain.voltage            1                       # Voltage in Volts
system.cpu.pwrStateResidencyTicks::ON      1078786000                       # Cumulative time (in ticks) in various power states
system.cpu.icache.pwrStateResidencyTicks::UNDEFINED   1078786000                       # Cumulative time (in ticks) in various power states
system.cpu.icache.demand_hits::.cpu.inst       235891                       # number of demand (read+write) hits
system.cpu.icache.demand_hits::total           235891                       # number of demand (read+write) hits
system.cpu.icache.overall_hits::.cpu.inst       235891                       # number of overall hits
system.cpu.icache.overall_hits::total          235891                       # number of overall hits
system.cpu.icache.demand_misses::.cpu.inst         3279                       # number of demand (read+write) misses
system.cpu.icache.demand_misses::total           3279                       # number of demand (read+write) misses
system.cpu.icache.overall_misses::.cpu.inst         3279                       # number of overall misses
system.cpu.icache.overall_misses::total          3279                       # number of overall misses
system.cpu.icache.demand_miss_latency::.cpu.inst    164732000                       # number of demand (read+write) miss cycles
system.cpu.icache.demand_miss_latency::total    164732000                       # number of demand (read+write) miss cycles
system.cpu.icache.overall_miss_latency::.cpu.inst    164732000                       # number of overall miss cycles
system.cpu.icache.overall_miss_latency::total    164732000                       # number of overall miss cycles
system.cpu.icache.demand_accesses::.cpu.inst       239170                       # number of demand (read+write) accesses
system.cpu.icache.demand_accesses::total       239170                       # number of demand (read+write) accesses
system.cpu.icache.overall_accesses::.cpu.inst       239170                       # number of overall (read+write) accesses
system.cpu.icache.overall_accesses::total       239170                       # number of overall (read+write) accesses
system.cpu.icache.demand_miss_rate::.cpu.inst     0.013710                       # miss rate for demand accesses
system.cpu.icache.demand_miss_rate::total     0.013710                       # miss rate for demand accesses
system.cpu.icache.overall_miss_rate::.cpu.inst     0.013710                       # miss rate for overall accesses
system.cpu.icache.overall_miss_rate::total     0.013710                       # miss rate for overall accesses
system.cpu.icache.demand_avg_miss_latency::.cpu.inst 50238.487344                       # average overall miss latency
system.cpu.icache.demand_avg_miss_latency::total 50238.487344                       # average overall miss latency
system.cpu.icache.overall_avg_miss_latency::.cpu.inst 50238.487344                       # average overall miss latency
system.cpu.icache.overall_avg_miss_latency::total 50238.487344                       # average overall miss latency
system.cpu.icache.blocked_cycles::no_mshrs           39                       # number of cycles access was blocked
system.cpu.icache.blocked_cycles::no_targets            0                       # number of cycles access was blocked
system.cpu.icache.blocked::no_mshrs                 2                       # number of cycles access was blocked
system.cpu.icache.blocked::no_targets               0                       # number of cycles access was blocked
system.cpu.icache.avg_blocked_cycles::no_mshrs    19.500000                       # average number of cycles each access was blocked
system.cpu.icache.avg_blocked_cycles::no_targets          nan                       # average number of cycles each access was blocked
system.cpu.icache.demand_mshr_hits::.cpu.inst          663                       # number of demand (read+write) MSHR hits
system.cpu.icache.demand_mshr_hits::total          663                       # number of demand (read+write) MSHR hits
system.cpu.icache.overall_mshr_hits::.cpu.inst          663                       # number of overall MSHR hits
system.cpu.icache.overall_mshr_hits::total          663                       # number of overall MSHR hits
system.cpu.icache.demand_mshr_misses::.cpu.inst         2616                       # number of demand (read+write) MSHR misses
system.cpu.icache.demand_mshr_misses::total         2616                       # number of demand (read+write) MSHR misses
system.cpu.icache.overall_mshr_misses::.cpu.inst         2616                       # number of overall MSHR misses
system.cpu.icache.overall_mshr_misses::total         2616                       # number of overall MSHR misses
system.cpu.icache.demand_mshr_miss_latency::.cpu.inst    131288800                       # number of demand (read+write) MSHR miss cycles
system.cpu.icache.demand_mshr_miss_latency::total    131288800                       # number of demand (read+write) MSHR miss cycles
system.cpu.icache.overall_mshr_miss_latency::.cpu.inst    131288800                       # number of overall MSHR miss cycles
system.cpu.icache.overall_mshr_miss_latency::total    131288800                       # number of overall MSHR miss cycles
system.cpu.icache.demand_mshr_miss_rate::.cpu.inst     0.010938                       # mshr miss rate for demand accesses
system.cpu.icache.demand_mshr_miss_rate::total     0.010938                       # mshr miss rate for demand accesses
system.cpu.icache.overall_mshr_miss_rate::.cpu.inst     0.010938                       # mshr miss rate for overall accesses
system.cpu.icache.overall_mshr_miss_rate::total     0.010938                       # mshr miss rate for overall accesses
system.cpu.icache.demand_avg_mshr_miss_latency::.cpu.inst 50186.850153                       # average overall mshr miss latency
system.cpu.icache.demand_avg_mshr_miss_latency::total 50186.850153                       # average overall mshr miss latency
system.cpu.icache.overall_avg_mshr_miss_latency::.cpu.inst 50186.850153                       # average overall mshr miss latency
system.cpu.icache.overall_avg_mshr_miss_latency::total 50186.850153                       # average overall mshr miss latency
system.cpu.icache.replacements                   2360                       # number of replacements
system.cpu.icache.ReadReq_hits::.cpu.inst       235891                       # number of ReadReq hits
system.cpu.icache.ReadReq_hits::total          235891                       # number of ReadReq hits
system.cpu.icache.ReadReq_misses::.cpu.inst         3279                       # number of ReadReq misses
system.cpu.icache.ReadReq_misses::total          3279                       # number of ReadReq misses
system.cpu.icache.ReadReq_miss_latency::.cpu.inst    164732000                       # number of ReadReq miss cycles
system.cpu.icache.ReadReq_miss_latency::total    164732000                       # number of ReadReq miss cycles
system.cpu.icache.ReadReq_accesses::.cpu.inst       239170                       # number of ReadReq accesses(hits+misses)
system.cpu.icache.ReadReq_accesses::total       239170                       # number of ReadReq accesses(hits+misses)
system.cpu.icache.ReadReq_miss_rate::.cpu.inst     0.013710                       # miss rate for ReadReq accesses
system.cpu.icache.ReadReq_miss_rate::total     0.013710                       # miss rate for ReadReq accesses
system.cpu.icache.ReadReq_avg_miss_latency::.cpu.inst 50238.487344                       # average ReadReq miss latency
system.cpu.icache.ReadReq_avg_miss_latency::total 50238.487344                       # average ReadReq miss latency
system.cpu.icache.ReadReq_mshr_hits::.cpu.inst          663                       # number of ReadReq MSHR hits
system.cpu.icache.ReadReq_mshr_hits::total          663                       # number of ReadReq MSHR hits
system.cpu.icache.ReadReq_mshr_misses::.cpu.inst         2616                       # number of ReadReq MSHR misses
system.cpu.icache.ReadReq_mshr_misses::total         2616                       # number of ReadReq MSHR misses
system.cpu.icache.ReadReq_mshr_miss_latency::.cpu.inst    131288800                       # number of ReadReq MSHR miss cycles
system.cpu.icache.ReadReq_mshr_miss_latency::total    131288800                       # number of ReadReq MSHR miss cycles
system.cpu.icache.ReadReq_mshr_miss_rate::.cpu.inst     0.010938                       # mshr miss rate for ReadReq accesses
system.cpu.icache.ReadReq_mshr_miss_rate::total     0.010938                       # mshr miss rate for ReadReq accesses
system.cpu.icache.ReadReq_avg_mshr_miss_latency::.cpu.inst 50186.850153                       # average ReadReq mshr miss latency
system.cpu.icache.ReadReq_avg_mshr_miss_latency::total 50186.850153                       # average ReadReq mshr miss latency
system.cpu.icache.prefetcher.pwrStateResidencyTicks::UNDEFINED   1078786000                       # Cumulative time (in ticks) in various power states
system.cpu.icache.tags.pwrStateResidencyTicks::UNDEFINED   1078786000                       # Cumulative time (in ticks) in various power states
system.cpu.icache.tags.tagsinuse           253.466471                       # Cycle average of tags in use
system.cpu.icache.tags.total_refs              210444                       # Total number of references to valid blocks.
system.cpu.icache.tags.sampled_refs              2360                       # Sample count of references to valid blocks.
system.cpu.icache.tags.avg_refs             89.171186                       # Average number of references to valid blocks.
system.cpu.icache.tags.warmup_cycle             66400                       # Cycle when the warmup percentage was hit.
system.cpu.icache.tags.occ_blocks::.cpu.inst   253.466471                       # Average occupied blocks per requestor
system.cpu.icache.tags.occ_percent::.cpu.inst     0.990103                       # Average percentage of cache occupancy
system.cpu.icache.tags.occ_percent::total     0.990103                       # Average percentage of cache occupancy
system.cpu.icache.tags.occ_task_id_blocks::1024          256                       # Occupied blocks per task id
system.cpu.icache.tags.age_task_id_blocks_1024::0           68                       # Occupied blocks per task id
system.cpu.icache.tags.age_task_id_blocks_1024::1          164                       # Occupied blocks per task id
system.cpu.icache.tags.age_task_id_blocks_1024::2           24                       # Occupied blocks per task id
system.cpu.icache.tags.occ_task_id_percent::1024            1                       # Percentage of cache occupancy per task id
system.cpu.icache.tags.tag_accesses            480956                       # Number of tag accesses
system.cpu.icache.tags.data_accesses           480956                       # Number of data accesses
system.cpu.dtb.walker.pwrStateResidencyTicks::UNDEFINED   1078786000                       # Cumulative time (in ticks) in various power states
system.cpu.interrupts.clk_domain.clock           6400                       # Clock period in ticks
system.cpu.itb.walker.pwrStateResidencyTicks::UNDEFINED   1078786000                       # Cumulative time (in ticks) in various power states
system.cpu.dcache.pwrStateResidencyTicks::UNDEFINED   1078786000                       # Cumulative time (in ticks) in various power states
system.cpu.dcache.demand_hits::.cpu.data       665723                       # number of demand (read+write) hits
system.cpu.dcache.demand_hits::total           665723                       # number of demand (read+write) hits
system.cpu.dcache.overall_hits::.cpu.data       665723                       # number of overall hits
system.cpu.dcache.overall_hits::total          665723                       # number of overall hits
system.cpu.dcache.demand_misses::.cpu.data        34129                       # number of demand (read+write) misses
system.cpu.dcache.demand_misses::total          34129                       # number of demand (read+write) misses
system.cpu.dcache.overall_misses::.cpu.data        34129                       # number of overall misses
system.cpu.dcache.overall_misses::total         34129                       # number of overall misses
system.cpu.dcache.demand_miss_latency::.cpu.data   1646261198                       # number of demand (read+write) miss cycles
system.cpu.dcache.demand_miss_latency::total   1646261198                       # number of demand (read+write) miss cycles
system.cpu.dcache.overall_miss_latency::.cpu.data   1646261198                       # number of overall miss cycles
system.cpu.dcache.overall_miss_latency::total   1646261198                       # number of overall miss cycles
system.cpu.dcache.demand_accesses::.cpu.data       699852                       # number of demand (read+write) accesses
system.cpu.dcache.demand_accesses::total       699852                       # number of demand (read+write) accesses
system.cpu.dcache.overall_accesses::.cpu.data       699852                       # number of overall (read+write) accesses
system.cpu.dcache.overall_accesses::total       699852                       # number of overall (read+write) accesses
system.cpu.dcache.demand_miss_rate::.cpu.data     0.048766                       # miss rate for demand accesses
system.cpu.dcache.demand_miss_rate::total     0.048766                       # miss rate for demand accesses
system.cpu.dcache.overall_miss_rate::.cpu.data     0.048766                       # miss rate for overall accesses
system.cpu.dcache.overall_miss_rate::total     0.048766                       # miss rate for overall accesses
system.cpu.dcache.demand_avg_miss_latency::.cpu.data 48236.432301                       # average overall miss latency
system.cpu.dcache.demand_avg_miss_latency::total 48236.432301                       # average overall miss latency
system.cpu.dcache.overall_avg_miss_latency::.cpu.data 48236.432301                       # average overall miss latency
system.cpu.dcache.overall_avg_miss_latency::total 48236.432301                       # average overall miss latency
system.cpu.dcache.blocked_cycles::no_mshrs        31070                       # number of cycles access was blocked
system.cpu.dcache.blocked_cycles::no_targets          138                       # number of cycles access was blocked
system.cpu.dcache.blocked::no_mshrs               768                       # number of cycles access was blocked
system.cpu.dcache.blocked::no_targets               1                       # number of cycles access was blocked
system.cpu.dcache.avg_blocked_cycles::no_mshrs    40.455729                       # average number of cycles each access was blocked
system.cpu.dcache.avg_blocked_cycles::no_targets          138                       # average number of cycles each access was blocked
system.cpu.dcache.unused_prefetches              1770                       # number of HardPF blocks evicted w/o reference
system.cpu.dcache.writebacks::.writebacks         2776                       # number of writebacks
system.cpu.dcache.writebacks::total              2776                       # number of writebacks
system.cpu.dcache.demand_mshr_hits::.cpu.data        21712                       # number of demand (read+write) MSHR hits
system.cpu.dcache.demand_mshr_hits::total        21712                       # number of demand (read+write) MSHR hits
system.cpu.dcache.overall_mshr_hits::.cpu.data        21712                       # number of overall MSHR hits
system.cpu.dcache.overall_mshr_hits::total        21712                       # number of overall MSHR hits
system.cpu.dcache.demand_mshr_misses::.cpu.data        12417                       # number of demand (read+write) MSHR misses
system.cpu.dcache.demand_mshr_misses::total        12417                       # number of demand (read+write) MSHR misses
system.cpu.dcache.overall_mshr_misses::.cpu.data        12417                       # number of overall MSHR misses
system.cpu.dcache.overall_mshr_misses::.cpu.dcache.prefetcher         4404                       # number of overall MSHR misses
system.cpu.dcache.overall_mshr_misses::total        16821                       # number of overall MSHR misses
system.cpu.dcache.demand_mshr_miss_latency::.cpu.data    569405200                       # number of demand (read+write) MSHR miss cycles
system.cpu.dcache.demand_mshr_miss_latency::total    569405200                       # number of demand (read+write) MSHR miss cycles
system.cpu.dcache.overall_mshr_miss_latency::.cpu.data    569405200                       # number of overall MSHR miss cycles
system.cpu.dcache.overall_mshr_miss_latency::.cpu.dcache.prefetcher    254382072                       # number of overall MSHR miss cycles
system.cpu.dcache.overall_mshr_miss_latency::total    823787272                       # number of overall MSHR miss cycles
system.cpu.dcache.demand_mshr_miss_rate::.cpu.data     0.017742                       # mshr miss rate for demand accesses
system.cpu.dcache.demand_mshr_miss_rate::total     0.017742                       # mshr miss rate for demand accesses
system.cpu.dcache.overall_mshr_miss_rate::.cpu.data     0.017742                       # mshr miss rate for overall accesses
system.cpu.dcache.overall_mshr_miss_rate::.cpu.dcache.prefetcher          inf                       # mshr miss rate for overall accesses
system.cpu.dcache.overall_mshr_miss_rate::total     0.024035                       # mshr miss rate for overall accesses
system.cpu.dcache.demand_avg_mshr_miss_latency::.cpu.data 45856.905855                       # average overall mshr miss latency
system.cpu.dcache.demand_avg_mshr_miss_latency::total 45856.905855                       # average overall mshr miss latency
system.cpu.dcache.overall_avg_mshr_miss_latency::.cpu.data 45856.905855                       # average overall mshr miss latency
system.cpu.dcache.overall_avg_mshr_miss_latency::.cpu.dcache.prefetcher 57761.596730                       # average overall mshr miss latency
system.cpu.dcache.overall_avg_mshr_miss_latency::total 48973.739492                       # average overall mshr miss latency
system.cpu.dcache.replacements                  15797                       # number of replacements
system.cpu.dcache.ReadReq_hits::.cpu.data       497861                       # number of ReadReq hits
system.cpu.dcache.ReadReq_hits::total          497861                       # number of ReadReq hits
system.cpu.dcache.ReadReq_misses::.cpu.data        32016                       # number of ReadReq misses
system.cpu.dcache.ReadReq_misses::total         32016                       # number of ReadReq misses
system.cpu.dcache.ReadReq_miss_latency::.cpu.data   1542798800                       # number of ReadReq miss cycles
system.cpu.dcache.ReadReq_miss_latency::total   1542798800                       # number of ReadReq miss cycles
system.cpu.dcache.ReadReq_accesses::.cpu.data       529877                       # number of ReadReq accesses(hits+misses)
system.cpu.dcache.ReadReq_accesses::total       529877                       # number of ReadReq accesses(hits+misses)
system.cpu.dcache.ReadReq_miss_rate::.cpu.data     0.060422                       # miss rate for ReadReq accesses
system.cpu.dcache.ReadReq_miss_rate::total     0.060422                       # miss rate for ReadReq accesses
system.cpu.dcache.ReadReq_avg_miss_latency::.cpu.data 48188.368316                       # average ReadReq miss latency
system.cpu.dcache.ReadReq_avg_miss_latency::total 48188.368316                       # average ReadReq miss latency
system.cpu.dcache.ReadReq_mshr_hits::.cpu.data        21683                       # number of ReadReq MSHR hits
system.cpu.dcache.ReadReq_mshr_hits::total        21683                       # number of ReadReq MSHR hits
system.cpu.dcache.ReadReq_mshr_misses::.cpu.data        10333                       # number of ReadReq MSHR misses
system.cpu.dcache.ReadReq_mshr_misses::total        10333                       # number of ReadReq MSHR misses
system.cpu.dcache.ReadReq_mshr_miss_latency::.cpu.data    468659600                       # number of ReadReq MSHR miss cycles
system.cpu.dcache.ReadReq_mshr_miss_latency::total    468659600                       # number of ReadReq MSHR miss cycles
system.cpu.dcache.ReadReq_mshr_miss_rate::.cpu.data     0.019501                       # mshr miss rate for ReadReq accesses
system.cpu.dcache.ReadReq_mshr_miss_rate::total     0.019501                       # mshr miss rate for ReadReq accesses
system.cpu.dcache.ReadReq_avg_mshr_miss_latency::.cpu.data 45355.617923                       # average ReadReq mshr miss latency
system.cpu.dcache.ReadReq_avg_mshr_miss_latency::total 45355.617923                       # average ReadReq mshr miss latency
system.cpu.dcache.WriteReq_hits::.cpu.data       167862                       # number of WriteReq hits
system.cpu.dcache.WriteReq_hits::total         167862                       # number of WriteReq hits
system.cpu.dcache.WriteReq_misses::.cpu.data         2113                       # number of WriteReq misses
system.cpu.dcache.WriteReq_misses::total         2113                       # number of WriteReq misses
system.cpu.dcache.WriteReq_miss_latency::.cpu.data    103462398                       # number of WriteReq miss cycles
system.cpu.dcache.WriteReq_miss_latency::total    103462398                       # number of WriteReq miss cycles
system.cpu.dcache.WriteReq_accesses::.cpu.data       169975                       # number of WriteReq accesses(hits+misses)
system.cpu.dcache.WriteReq_accesses::total       169975                       # number of WriteReq accesses(hits+misses)
system.cpu.dcache.WriteReq_miss_rate::.cpu.data     0.012431                       # miss rate for WriteReq accesses
system.cpu.dcache.WriteReq_miss_rate::total     0.012431                       # miss rate for WriteReq accesses
system.cpu.dcache.WriteReq_avg_miss_latency::.cpu.data 48964.693800                       # average WriteReq miss latency
system.cpu.dcache.WriteReq_avg_miss_latency::total 48964.693800                       # average WriteReq miss latency
system.cpu.dcache.WriteReq_mshr_hits::.cpu.data           29                       # number of WriteReq MSHR hits
system.cpu.dcache.WriteReq_mshr_hits::total           29                       # number of WriteReq MSHR hits
system.cpu.dcache.WriteReq_mshr_misses::.cpu.data         2084                       # number of WriteReq MSHR misses
system.cpu.dcache.WriteReq_mshr_misses::total         2084                       # number of WriteReq MSHR misses
system.cpu.dcache.WriteReq_mshr_miss_latency::.cpu.data    100745600                       # number of WriteReq MSHR miss cycles
system.cpu.dcache.WriteReq_mshr_miss_latency::total    100745600                       # number of WriteReq MSHR miss cycles
[...]
system.l2cache.overall_mshr_miss_rate::.cpu.dcache.prefetcher     0.714286                       # mshr miss rate for overall accesses
system.l2cache.overall_mshr_miss_rate::.l2cache.prefetcher          inf                       # mshr miss rate for overall accesses
system.l2cache.overall_mshr_miss_rate::total     0.274486                       # mshr miss rate for overall accesses
system.l2cache.demand_avg_mshr_miss_latency::.cpu.inst 60082.151589                       # average overall mshr miss latency
system.l2cache.demand_avg_mshr_miss_latency::.cpu.data 60048.677249                       # average overall mshr miss latency
system.l2cache.demand_avg_mshr_miss_latency::.cpu.dcache.prefetcher 59828.386667                       # average overall mshr miss latency
system.l2cache.demand_avg_mshr_miss_latency::total 60044.471025                       # average overall mshr miss latency
system.l2cache.overall_avg_mshr_miss_latency::.cpu.inst 60082.151589                       # average overall mshr miss latency
system.l2cache.overall_avg_mshr_miss_latency::.cpu.data 60048.677249                       # average overall mshr miss latency
system.l2cache.overall_avg_mshr_miss_latency::.cpu.dcache.prefetcher 59828.386667                       # average overall mshr miss latency
system.l2cache.overall_avg_mshr_miss_latency::.l2cache.prefetcher 58698.625000                       # average overall mshr miss latency
system.l2cache.overall_avg_mshr_miss_latency::total 60028.660793                       # average overall mshr miss latency
system.l2cache.replacements                       693                       # number of replacements
system.l2cache.WritebackDirty_hits::.writebacks          131                       # number of WritebackDirty hits
system.l2cache.WritebackDirty_hits::total          131                       # number of WritebackDirty hits
system.l2cache.WritebackDirty_accesses::.writebacks          131                       # number of WritebackDirty accesses(hits+misses)
system.l2cache.WritebackDirty_accesses::total          131                       # number of WritebackDirty accesses(hits+misses)
system.l2cache.CleanEvict_mshr_misses::.writebacks           26                       # number of CleanEvict MSHR misses
system.l2cache.CleanEvict_mshr_misses::total           26                       # number of CleanEvict MSHR misses
system.l2cache.CleanEvict_mshr_miss_rate::.writebacks          inf                       # mshr miss rate for CleanEvict accesses
system.l2cache.CleanEvict_mshr_miss_rate::total          inf                       # mshr miss rate for CleanEvict accesses
system.l2cache.HardPFReq_mshr_misses::.l2cache.prefetcher            8                       # number of HardPFReq MSHR misses
system.l2cache.HardPFReq_mshr_misses::total            8                       # number of HardPFReq MSHR misses
system.l2cache.HardPFReq_mshr_miss_latency::.l2cache.prefetcher       469589                       # number of HardPFReq MSHR miss cycles
system.l2cache.HardPFReq_mshr_miss_latency::total       469589                       # number of HardPFReq MSHR miss cycles
system.l2cache.HardPFReq_mshr_miss_rate::.l2cache.prefetcher          inf                       # mshr miss rate for HardPFReq accesses
system.l2cache.HardPFReq_mshr_miss_rate::total          inf                       # mshr miss rate for HardPFReq accesses
system.l2cache.HardPFReq_avg_mshr_miss_latency::.l2cache.prefetcher 58698.625000                       # average HardPFReq mshr miss latency
system.l2cache.HardPFReq_avg_mshr_miss_latency::total 58698.625000                       # average HardPFReq mshr miss latency
system.l2cache.UpgradeReq_hits::.cpu.data            1                       # number of UpgradeReq hits
system.l2cache.UpgradeReq_hits::total               1                       # number of UpgradeReq hits
system.l2cache.UpgradeReq_accesses::.cpu.data            1                       # number of UpgradeReq accesses(hits+misses)
system.l2cache.UpgradeReq_accesses::total            1                       # number of UpgradeReq accesses(hits+misses)
system.l2cache.ReadExReq_hits::.cpu.data            8                       # number of ReadExReq hits
system.l2cache.ReadExReq_hits::total                8                       # number of ReadExReq hits
system.l2cache.ReadExReq_misses::.cpu.data           29                       # number of ReadExReq misses
system.l2cache.ReadExReq_misses::total             29                       # number of ReadExReq misses
system.l2cache.ReadExReq_miss_latency::.cpu.data      1988000                       # number of ReadExReq miss cycles
system.l2cache.ReadExReq_miss_latency::total      1988000                       # number of ReadExReq miss cycles
system.l2cache.ReadExReq_accesses::.cpu.data           37                       # number of ReadExReq accesses(hits+misses)
system.l2cache.ReadExReq_accesses::total           37                       # number of ReadExReq accesses(hits+misses)
system.l2cache.ReadExReq_miss_rate::.cpu.data     0.783784                       # miss rate for ReadExReq accesses
system.l2cache.ReadExReq_miss_rate::total     0.783784                       # miss rate for ReadExReq accesses
system.l2cache.ReadExReq_avg_miss_latency::.cpu.data 68551.724138                       # average ReadExReq miss latency
system.l2cache.ReadExReq_avg_miss_latency::total 68551.724138                       # average ReadExReq miss latency
system.l2cache.ReadExReq_mshr_misses::.cpu.data           29                       # number of ReadExReq MSHR misses
system.l2cache.ReadExReq_mshr_misses::total           29                       # number of ReadExReq MSHR misses
system.l2cache.ReadExReq_mshr_miss_latency::.cpu.data      1756000                       # number of ReadExReq MSHR miss cycles
system.l2cache.ReadExReq_mshr_miss_latency::total      1756000                       # number of ReadExReq MSHR miss cycles
system.l2cache.ReadExReq_mshr_miss_rate::.cpu.data     0.783784                       # mshr miss rate for ReadExReq accesses
system.l2cache.ReadExReq_mshr_miss_rate::total     0.783784                       # mshr miss rate for ReadExReq accesses
system.l2cache.ReadExReq_avg_mshr_miss_latency::.cpu.data 60551.724138                       # average ReadExReq mshr miss latency
system.l2cache.ReadExReq_avg_mshr_miss_latency::total 60551.724138                       # average ReadExReq mshr miss latency
system.l2cache.ReadSharedReq_hits::.cpu.inst         1605                       # number of ReadSharedReq hits
system.l2cache.ReadSharedReq_hits::.cpu.data          164                       # number of ReadSharedReq hits
system.l2cache.ReadSharedReq_hits::.cpu.dcache.prefetcher           29                       # number of ReadSharedReq hits
system.l2cache.ReadSharedReq_hits::total         1798                       # number of ReadSharedReq hits
system.l2cache.ReadSharedReq_misses::.cpu.inst          409                       # number of ReadSharedReq misses
system.l2cache.ReadSharedReq_misses::.cpu.data          161                       # number of ReadSharedReq misses
system.l2cache.ReadSharedReq_misses::.cpu.dcache.prefetcher           76                       # number of ReadSharedReq misses
system.l2cache.ReadSharedReq_misses::total          646                       # number of ReadSharedReq misses
system.l2cache.ReadSharedReq_miss_latency::.cpu.inst     27845600                       # number of ReadSharedReq miss cycles
system.l2cache.ReadSharedReq_miss_latency::.cpu.data     10929600                       # number of ReadSharedReq miss cycles
system.l2cache.ReadSharedReq_miss_latency::.cpu.dcache.prefetcher      5112328                       # number of ReadSharedReq miss cycles
system.l2cache.ReadSharedReq_miss_latency::total     43887528                       # number of ReadSharedReq miss cycles
system.l2cache.ReadSharedReq_accesses::.cpu.inst         2014                       # number of ReadSharedReq accesses(hits+misses)
system.l2cache.ReadSharedReq_accesses::.cpu.data          325                       # number of ReadSharedReq accesses(hits+misses)
system.l2cache.ReadSharedReq_accesses::.cpu.dcache.prefetcher          105                       # number of ReadSharedReq accesses(hits+misses)
system.l2cache.ReadSharedReq_accesses::total         2444                       # number of ReadSharedReq accesses(hits+misses)
system.l2cache.ReadSharedReq_miss_rate::.cpu.inst     0.203078                       # miss rate for ReadSharedReq accesses
system.l2cache.ReadSharedReq_miss_rate::.cpu.data     0.495385                       # miss rate for ReadSharedReq accesses
system.l2cache.ReadSharedReq_miss_rate::.cpu.dcache.prefetcher     0.723810                       # miss rate for ReadSharedReq accesses
system.l2cache.ReadSharedReq_miss_rate::total     0.264321                       # miss rate for ReadSharedReq accesses
system.l2cache.ReadSharedReq_avg_miss_latency::.cpu.inst 68082.151589                       # average ReadSharedReq miss latency
system.l2cache.ReadSharedReq_avg_miss_latency::.cpu.data 67885.714286                       # average ReadSharedReq miss latency
system.l2cache.ReadSharedReq_avg_miss_latency::.cpu.dcache.prefetcher 67267.473684                       # average ReadSharedReq miss latency
system.l2cache.ReadSharedReq_avg_miss_latency::total 67937.349845                       # average ReadSharedReq miss latency
system.l2cache.ReadSharedReq_mshr_hits::.cpu.data            1                       # number of ReadSharedReq MSHR hits
system.l2cache.ReadSharedReq_mshr_hits::.cpu.dcache.prefetcher            1                       # number of ReadSharedReq MSHR hits
system.l2cache.ReadSharedReq_mshr_hits::total            2                       # number of ReadSharedReq MSHR hits
system.l2cache.ReadSharedReq_mshr_misses::.cpu.inst          409                       # number of ReadSharedReq MSHR misses
system.l2cache.ReadSharedReq_mshr_misses::.cpu.data          160                       # number of ReadSharedReq MSHR misses
system.l2cache.ReadSharedReq_mshr_misses::.cpu.dcache.prefetcher           75                       # number of ReadSharedReq MSHR misses
system.l2cache.ReadSharedReq_mshr_misses::total          644                       # number of ReadSharedReq MSHR misses
system.l2cache.ReadSharedReq_mshr_miss_latency::.cpu.inst     24573600                       # number of ReadSharedReq MSHR miss cycles
system.l2cache.ReadSharedReq_mshr_miss_latency::.cpu.data      9593200                       # number of ReadSharedReq MSHR miss cycles
system.l2cache.ReadSharedReq_mshr_miss_latency::.cpu.dcache.prefetcher      4487129                       # number of ReadSharedReq MSHR miss cycles
system.l2cache.ReadSharedReq_mshr_miss_latency::total     38653929                       # number of ReadSharedReq MSHR miss cycles
system.l2cache.ReadSharedReq_mshr_miss_rate::.cpu.inst     0.203078                       # mshr miss rate for ReadSharedReq accesses
system.l2cache.ReadSharedReq_mshr_miss_rate::.cpu.data     0.492308                       # mshr miss rate for ReadSharedReq accesses
system.l2cache.ReadSharedReq_mshr_miss_rate::.cpu.dcache.prefetcher     0.714286                       # mshr miss rate for ReadSharedReq accesses
system.l2cache.ReadSharedReq_mshr_miss_rate::total     0.263502                       # mshr miss rate for ReadSharedReq accesses
system.l2cache.ReadSharedReq_avg_mshr_miss_latency::.cpu.inst 60082.151589                       # average ReadSharedReq mshr miss latency
system.l2cache.ReadSharedReq_avg_mshr_miss_latency::.cpu.data 59957.500000                       # average ReadSharedReq mshr miss latency
system.l2cache.ReadSharedReq_avg_mshr_miss_latency::.cpu.dcache.prefetcher 59828.386667                       # average ReadSharedReq mshr miss latency
system.l2cache.ReadSharedReq_avg_mshr_miss_latency::total 60021.628882                       # average ReadSharedReq mshr miss latency
system.l2cache.prefetcher.pwrStateResidencyTicks::UNDEFINED    135909600                       # Cumulative time (in ticks) in various power states
system.l2cache.tags.pwrStateResidencyTicks::UNDEFINED    135909600                       # Cumulative time (in ticks) in various power states
system.l2cache.tags.tagsinuse                    4096                       # Cycle average of tags in use
system.l2cache.tags.total_refs                  17376                       # Total number of references to valid blocks.
system.l2cache.tags.sampled_refs                 4789                       # Sample count of references to valid blocks.
system.l2cache.tags.avg_refs                 3.628315                       # Average number of references to valid blocks.
system.l2cache.tags.warmup_cycle                    0                       # Cycle when the warmup percentage was hit.
system.l2cache.tags.occ_blocks::.writebacks    40.421695                       # Average occupied blocks per requestor
system.l2cache.tags.occ_blocks::.cpu.inst  1110.546679                       # Average occupied blocks per requestor
system.l2cache.tags.occ_blocks::.cpu.data  1775.766636                       # Average occupied blocks per requestor
system.l2cache.tags.occ_blocks::.cpu.dcache.prefetcher  1040.272901                       # Average occupied blocks per requestor
system.l2cache.tags.occ_blocks::.l2cache.prefetcher   128.992089                       # Average occupied blocks per requestor
system.l2cache.tags.occ_percent::.writebacks     0.009869                       # Average percentage of cache occupancy
system.l2cache.tags.occ_percent::.cpu.inst     0.271130                       # Average percentage of cache occupancy
system.l2cache.tags.occ_percent::.cpu.data     0.433537                       # Average percentage of cache occupancy
system.l2cache.tags.occ_percent::.cpu.dcache.prefetcher     0.253973                       # Average percentage of cache occupancy
system.l2cache.tags.occ_percent::.l2cache.prefetcher     0.031492                       # Average percentage of cache occupancy
system.l2cache.tags.occ_percent::total              1                       # Average percentage of cache occupancy
system.l2cache.tags.occ_task_id_blocks::1022         1093                       # Occupied blocks per task id
system.l2cache.tags.occ_task_id_blocks::1024         3003                       # Occupied blocks per task id
system.l2cache.tags.age_task_id_blocks_1022::0           14                       # Occupied blocks per task id
system.l2cache.tags.age_task_id_blocks_1022::1           29                       # Occupied blocks per task id
system.l2cache.tags.age_task_id_blocks_1022::2         1004                       # Occupied blocks per task id
system.l2cache.tags.age_task_id_blocks_1022::3           46                       # Occupied blocks per task id
system.l2cache.tags.age_task_id_blocks_1024::0          171                       # Occupied blocks per task id
system.l2cache.tags.age_task_id_blocks_1024::1          161                       # Occupied blocks per task id
system.l2cache.tags.age_task_id_blocks_1024::2         2459                       # Occupied blocks per task id
system.l2cache.tags.age_task_id_blocks_1024::3          212                       # Occupied blocks per task id
system.l2cache.tags.occ_task_id_percent::1022     0.266846                       # Percentage of cache occupancy per task id
system.l2cache.tags.occ_task_id_percent::1024     0.733154                       # Percentage of cache occupancy per task id
system.l2cache.tags.tag_accesses                40341                       # Number of tag accesses
system.l2cache.tags.data_accesses               40341                       # Number of data accesses
system.mem_ctrl.pwrStateResidencyTicks::UNDEFINED    135909600                       # Cumulative time (in ticks) in various power states
system.mem_ctrl.bytes_read::.cpu.inst           26176                       # Number of bytes read from this memory
system.mem_ctrl.bytes_read::.cpu.data           12096                       # Number of bytes read from this memory
system.mem_ctrl.bytes_read::.cpu.dcache.prefetcher         4800                       # Number of bytes read from this memory
system.mem_ctrl.bytes_read::.l2cache.prefetcher          512                       # Number of bytes read from this memory
system.mem_ctrl.bytes_read::total               43584                       # Number of bytes read from this memory
system.mem_ctrl.bytes_inst_read::.cpu.inst        26176                       # Number of instructions bytes read from this memory
system.mem_ctrl.bytes_inst_read::total          26176                       # Number of instructions bytes read from this memory
system.mem_ctrl.bytes_written::.writebacks         3008                       # Number of bytes written to this memory
system.mem_ctrl.bytes_written::total             3008                       # Number of bytes written to this memory
system.mem_ctrl.num_reads::.cpu.inst              409                       # Number of read requests responded to by this memory
system.mem_ctrl.num_reads::.cpu.data              189                       # Number of read requests responded to by this memory
system.mem_ctrl.num_reads::.cpu.dcache.prefetcher           75                       # Number of read requests responded to by this memory
system.mem_ctrl.num_reads::.l2cache.prefetcher            8                       # Number of read requests responded to by this memory
system.mem_ctrl.num_reads::total                  681                       # Number of read requests responded to by this memory
system.mem_ctrl.num_writes::.writebacks            47                       # Number of write requests responded to by this memory
system.mem_ctrl.num_writes::total                  47                       # Number of write requests responded to by this memory
system.mem_ctrl.bw_read::.cpu.inst          192598610                       # Total read bandwidth from this memory (bytes/s)
system.mem_ctrl.bw_read::.cpu.data           89000336                       # Total read bandwidth from this memory (bytes/s)
system.mem_ctrl.bw_read::.cpu.dcache.prefetcher     35317593                       # Total read bandwidth from this memory (bytes/s)
system.mem_ctrl.bw_read::.l2cache.prefetcher      3767210                       # Total read bandwidth from this memory (bytes/s)
system.mem_ctrl.bw_read::total              320683749                       # Total read bandwidth from this memory (bytes/s)
system.mem_ctrl.bw_inst_read::.cpu.inst     192598610                       # Instruction read bandwidth from this memory (bytes/s)
system.mem_ctrl.bw_inst_read::total         192598610                       # Instruction read bandwidth from this memory (bytes/s)
system.mem_ctrl.bw_write::.writebacks        22132359                       # Write bandwidth from this memory (bytes/s)
system.mem_ctrl.bw_write::total              22132359                       # Write bandwidth from this memory (bytes/s)
system.mem_ctrl.bw_total::.writebacks        22132359                       # Total bandwidth to/from this memory (bytes/s)
system.mem_ctrl.bw_total::.cpu.inst         192598610                       # Total bandwidth to/from this memory (bytes/s)
system.mem_ctrl.bw_total::.cpu.data          89000336                       # Total bandwidth to/from this memory (bytes/s)
system.mem_ctrl.bw_total::.cpu.dcache.prefetcher     35317593                       # Total bandwidth to/from this memory (bytes/s)
system.mem_ctrl.bw_total::.l2cache.prefetcher      3767210                       # Total bandwidth to/from this memory (bytes/s)
system.mem_ctrl.bw_total::total             342816107                       # Total bandwidth to/from this memory (bytes/s)

---------- End Simulation Statistics   ----------
