
---------- Begin Simulation Statistics ----------
final_tick                                 1285880400                       # Number of ticks from beginning of simulation (restored from checkpoints and never reset)
host_inst_rate                                 174956                       # Simulator instruction rate (inst/s)
host_mem_usage                                4407928                       # Number of bytes of host memory used
host_op_rate                                   314270                       # Simulator op (including micro ops) rate (op/s)
host_seconds                                    15.53                       # Real time elapsed on the host
host_tick_rate                               82821750                       # Simulator tick rate (ticks/s)
sim_freq                                 1000000000000                       # Frequency of simulated ticks
sim_insts                                     2716332                       # Number of instructions simulated
sim_ops                                       4879317                       # Number of ops (including micro ops) simulated
sim_seconds                                  0.001286                       # Number of seconds simulated
sim_ticks                                  1285880400                       # Number of ticks simulated
system.cpu.branchPred.BTBCorrect                    0                       # Number of correct BTB predictions (this stat may not work properly.
system.cpu.branchPred.BTBHitPct              0.000000                       # BTB Hit Percentage
system.cpu.branchPred.BTBHits                       0                       # Number of BTB hits
system.cpu.branchPred.BTBLookups               562699                       # Number of BTB lookups
system.cpu.branchPred.RASInCorrect                  9                       # Number of incorrect RAS predictions.
system.cpu.branchPred.condIncorrect             23541                       # Number of conditional branches incorrect
system.cpu.branchPred.condPredicted            578279                       # Number of conditional branches predicted
system.cpu.branchPred.indirectHits             312668                       # Number of indirect target hits.
system.cpu.branchPred.indirectLookups          562699                       # Number of indirect predictor lookups.
system.cpu.branchPred.indirectMisses           250031                       # Number of indirect misses.
system.cpu.branchPred.lookups                  637786                       # Number of BP lookups
system.cpu.branchPred.usedRAS                   27951                       # Number of times the RAS was used to get a target.
system.cpu.branchPredindirectMispredicted        11761                       # Number of mispredicted indirect branches.
system.cpu.cc_regfile_reads                   2942477                       # number of cc regfile reads
system.cpu.cc_regfile_writes                  2224645                       # number of cc regfile writes
system.cpu.commit.amos                              0                       # Number of atomic instructions committed
system.cpu.commit.branchMispredicts             23631                       # The number of times a branch was mispredicted
system.cpu.commit.branches                     500585                       # Number of branches committed
system.cpu.commit.bw_lim_events                829281                       # number cycles where commit BW limit reached
system.cpu.commit.commitNonSpecStalls             940                       # The number of times commit has been forced to stall to communicate backwards
system.cpu.commit.commitSquashedInsts          858988                       # The number of squashed insts skipped by commit
system.cpu.commit.committedInsts              2716332                       # Number of instructions committed
system.cpu.commit.committedOps                4879317                       # Number of ops (including micro ops) committed
system.cpu.commit.committed_per_cycle::samples      2812473                       # Number of insts commited each cycle
system.cpu.commit.committed_per_cycle::mean     1.734885                       # Number of insts commited each cycle
system.cpu.commit.committed_per_cycle::stdev     1.748658                       # Number of insts commited each cycle
system.cpu.commit.committed_per_cycle::underflows            0      0.00%      0.00% # Number of insts commited each cycle
system.cpu.commit.committed_per_cycle::0      1233857     43.87%     43.87% # Number of insts commited each cycle
system.cpu.commit.committed_per_cycle::1       240798      8.56%     52.43% # Number of insts commited each cycle
system.cpu.commit.committed_per_cycle::2       204216      7.26%     59.69% # Number of insts commited each cycle
system.cpu.commit.committed_per_cycle::3       304321     10.82%     70.51% # Number of insts commited each cycle
system.cpu.commit.committed_per_cycle::4       829281     29.49%    100.00% # Number of insts commited each cycle
system.cpu.commit.committed_per_cycle::overflows            0      0.00%    100.00% # Number of insts commited each cycle
system.cpu.commit.committed_per_cycle::min_value            0                       # Number of insts commited each cycle
system.cpu.commit.committed_per_cycle::max_value            4                       # Number of insts commited each cycle
system.cpu.commit.committed_per_cycle::total      2812473                       # Number of insts commited each cycle
system.cpu.commit.fp_insts                      76747                       # Number of committed floating point instructions.
system.cpu.commit.function_calls                25960                       # Number of function calls committed.
system.cpu.commit.int_insts                   4823235                       # Number of committed integer instructions.
system.cpu.commit.loads                        711681                       # Number of loads committed
system.cpu.commit.membars                           1                       # Number of memory barriers committed
system.cpu.commit.op_class_0::No_OpClass        20551      0.42%      0.42% # Class of committed instruction
system.cpu.commit.op_class_0::IntAlu          3790050     77.68%     78.10% # Class of committed instruction
system.cpu.commit.op_class_0::IntMult            3310      0.07%     78.16% # Class of committed instruction
system.cpu.commit.op_class_0::IntDiv            36320      0.74%     78.91% # Class of committed instruction
system.cpu.commit.op_class_0::FloatAdd           3045      0.06%     78.97% # Class of committed instruction
system.cpu.commit.op_class_0::FloatCmp              0      0.00%     78.97% # Class of committed instruction
system.cpu.commit.op_class_0::FloatCvt           1488      0.03%     79.00% # Class of committed instruction
system.cpu.commit.op_class_0::FloatMult             0      0.00%     79.00% # Class of committed instruction
system.cpu.commit.op_class_0::FloatMultAcc            0      0.00%     79.00% # Class of committed instruction
system.cpu.commit.op_class_0::FloatDiv              0      0.00%     79.00% # Class of committed instruction
system.cpu.commit.op_class_0::FloatMisc             0      0.00%     79.00% # Class of committed instruction
system.cpu.commit.op_class_0::FloatSqrt             0      0.00%     79.00% # Class of committed instruction
system.cpu.commit.op_class_0::SimdAdd            6388      0.13%     79.13% # Class of committed instruction
system.cpu.commit.op_class_0::SimdAddAcc            0      0.00%     79.13% # Class of committed instruction
system.cpu.commit.op_class_0::SimdAlu           11466      0.23%     79.37% # Class of committed instruction
system.cpu.commit.op_class_0::SimdCmp               0      0.00%     79.37% # Class of committed instruction
system.cpu.commit.op_class_0::SimdCvt           12492      0.26%     79.62% # Class of committed instruction
system.cpu.commit.op_class_0::SimdMisc           6724      0.14%     79.76% # Class of committed instruction
system.cpu.commit.op_class_0::SimdMult              0      0.00%     79.76% # Class of committed instruction
system.cpu.commit.op_class_0::SimdMultAcc            0      0.00%     79.76% # Class of committed instruction
system.cpu.commit.op_class_0::SimdShift          1331      0.03%     79.79% # Class of committed instruction
system.cpu.commit.op_class_0::SimdShiftAcc            0      0.00%     79.79% # Class of committed instruction
system.cpu.commit.op_class_0::SimdDiv               0      0.00%     79.79% # Class of committed instruction
system.cpu.commit.op_class_0::SimdSqrt              0      0.00%     79.79% # Class of committed instruction
system.cpu.commit.op_class_0::SimdFloatAdd            0      0.00%     79.79% # Class of committed instruction
system.cpu.commit.op_class_0::SimdFloatAlu            0      0.00%     79.79% # Class of committed instruction
system.cpu.commit.op_class_0::SimdFloatCmp            0      0.00%     79.79% # Class of committed instruction
system.cpu.commit.op_class_0::SimdFloatCvt            0      0.00%     79.79% # Class of committed instruction
system.cpu.commit.op_class_0::SimdFloatDiv            0      0.00%     79.79% # Class of committed instruction
system.cpu.commit.op_class_0::SimdFloatMisc            0      0.00%     79.79% # Class of committed instruction
system.cpu.commit.op_class_0::SimdFloatMult            0      0.00%     79.79% # Class of committed instruction
system.cpu.commit.op_class_0::SimdFloatMultAcc            0      0.00%     79.79% # Class of committed instruction
system.cpu.commit.op_class_0::SimdFloatSqrt            0      0.00%     79.79% # Class of committed instruction
system.cpu.commit.op_class_0::SimdReduceAdd            0      0.00%     79.79% # Class of committed instruction
system.cpu.commit.op_class_0::SimdReduceAlu            0      0.00%     79.79% # Class of committed instruction
system.cpu.commit.op_class_0::SimdReduceCmp            0      0.00%     79.79% # Class of committed instruction
system.cpu.commit.op_class_0::SimdFloatReduceAdd            0      0.00%     79.79% # Class of committed instruction
system.cpu.commit.op_class_0::SimdFloatReduceCmp            0      0.00%     79.79% # Class of committed instruction
system.cpu.commit.op_class_0::SimdAes               0      0.00%     79.79% # Class of committed instruction
system.cpu.commit.op_class_0::SimdAesMix            0      0.00%     79.79% # Class of committed instruction
system.cpu.commit.op_class_0::SimdSha1Hash            0      0.00%     79.79% # Class of committed instruction
system.cpu.commit.op_class_0::SimdSha1Hash2            0      0.00%     79.79% # Class of committed instruction
system.cpu.commit.op_class_0::SimdSha256Hash            0      0.00%     79.79% # Class of committed instruction
system.cpu.commit.op_class_0::SimdSha256Hash2            0      0.00%     79.79% # Class of committed instruction
system.cpu.commit.op_class_0::SimdShaSigma2            0      0.00%     79.79% # Class of committed instruction
system.cpu.commit.op_class_0::SimdShaSigma3            0      0.00%     79.79% # Class of committed instruction
system.cpu.commit.op_class_0::SimdPredAlu            0      0.00%     79.79% # Class of committed instruction
system.cpu.commit.op_class_0::MemRead          691499     14.17%     93.96% # Class of committed instruction
system.cpu.commit.op_class_0::MemWrite         261714      5.36%     99.32% # Class of committed instruction
system.cpu.commit.op_class_0::FloatMemRead        20182      0.41%     99.74% # Class of committed instruction
system.cpu.commit.op_class_0::FloatMemWrite        12757      0.26%    100.00% # Class of committed instruction
system.cpu.commit.op_class_0::IprAccess             0      0.00%    100.00% # Class of committed instruction
system.cpu.commit.op_class_0::InstPrefetch            0      0.00%    100.00% # Class of committed instruction
system.cpu.commit.op_class_0::total           4879317                       # Class of committed instruction
system.cpu.commit.refs                         986152                       # Number of memory references committed
system.cpu.commit.swp_count                         0                       # Number of s/w prefetches committed
system.cpu.commit.vec_insts                         0                       # Number of committed Vector instructions.
system.cpu.committedInsts                     2716332                       # Number of Instructions Simulated
system.cpu.committedOps                       4879317                       # Number of Ops (including micro ops) Simulated
system.cpu.cpi                               1.183472                       # CPI: Cycles Per Instruction
system.cpu.cpi_total                         1.183472                       # CPI: Total CPI of All Threads
system.cpu.dcache.prefetcher.num_hwpf_issued         7956                       # number of hwpf issued
system.cpu.dcache.prefetcher.pfBufferHit        34556                       # number of redundant prefetches already in prefetch queue
system.cpu.dcache.prefetcher.pfIdentified        49716                       # number of prefetch candidates identified
system.cpu.dcache.prefetcher.pfInCache              0                       # number of redundant prefetches already in cache/mshr dropped
system.cpu.dcache.prefetcher.pfRemovedFull            0                       # number of prefetches dropped due to prefetch queue size
system.cpu.dcache.prefetcher.pfSpanPage          4352                       # number of prefetches that crossed the page
system.cpu.decode.BlockedCycles               1024499                       # Number of cycles decode is blocked
system.cpu.decode.DecodedInsts                5945454                       # Number of instructions handled by decode
system.cpu.decode.IdleCycles                   411708                       # Number of cycles decode is idle
system.cpu.decode.RunCycles                   1499340                       # Number of cycles decode is running
system.cpu.decode.SquashCycles                  23708                       # Number of cycles decode is squashing
system.cpu.decode.UnblockCycles                 87551                       # Number of cycles decode is unblocking
system.cpu.dtb.rdAccesses                      793137                       # TLB accesses on read requests
system.cpu.dtb.rdMisses                          1873                       # TLB misses on read requests
system.cpu.dtb.wrAccesses                      292837                       # TLB accesses on write requests
system.cpu.dtb.wrMisses                           177                       # TLB misses on write requests
system.cpu.fetch.Branches                      637786                       # Number of branches that fetch encountered
system.cpu.fetch.CacheLines                    345132                       # Number of cache lines fetched
system.cpu.fetch.Cycles                       2582544                       # Number of cycles fetch has run and was not squashing or blocked
system.cpu.fetch.IcacheSquashes                  4644                       # Number of outstanding Icache misses that were squashed
system.cpu.fetch.Insts                        3458561                       # Number of instructions fetch has processed
system.cpu.fetch.MiscStallCycles                  136                       # Number of cycles fetch has spent waiting on interrupts, or bad addresses, or out of MSHRs
system.cpu.fetch.PendingQuiesceStallCycles            6                       # Number of stall cycles due to pending quiesce instructions
system.cpu.fetch.PendingTrapStallCycles           673                       # Number of stall cycles due to pending traps
system.cpu.fetch.SquashCycles                   47416                       # Number of cycles fetch has spent squashing
system.cpu.fetch.branchRate                  0.198397                       # Number of branch fetches per cycle
system.cpu.fetch.icacheStallCycles             439739                       # Number of cycles fetch is stalled on an Icache miss
system.cpu.fetch.predictedBranches             340619                       # Number of branches that fetch has predicted taken
system.cpu.fetch.rate                        1.075857                       # Number of inst fetches per cycle
system.cpu.fetch.rateDist::samples            3046806                       # Number of instructions fetched each cycle (Total)
system.cpu.fetch.rateDist::mean              2.037625                       # Number of instructions fetched each cycle (Total)
system.cpu.fetch.rateDist::stdev             1.914612                       # Number of instructions fetched each cycle (Total)
system.cpu.fetch.rateDist::underflows               0      0.00%      0.00% # Number of instructions fetched each cycle (Total)
system.cpu.fetch.rateDist::0                  1346301     44.19%     44.19% # Number of instructions fetched each cycle (Total)
system.cpu.fetch.rateDist::1                   100110      3.29%     47.47% # Number of instructions fetched each cycle (Total)
system.cpu.fetch.rateDist::2                    83266      2.73%     50.21% # Number of instructions fetched each cycle (Total)
system.cpu.fetch.rateDist::3                   126909      4.17%     54.37% # Number of instructions fetched each cycle (Total)
system.cpu.fetch.rateDist::4                  1390220     45.63%    100.00% # Number of instructions fetched each cycle (Total)
system.cpu.fetch.rateDist::overflows                0      0.00%    100.00% # Number of instructions fetched each cycle (Total)
system.cpu.fetch.rateDist::min_value                0                       # Number of instructions fetched each cycle (Total)
system.cpu.fetch.rateDist::max_value                4                       # Number of instructions fetched each cycle (Total)
system.cpu.fetch.rateDist::total              3046806                       # Number of instructions fetched each cycle (Total)
system.cpu.fp_regfile_reads                    124139                       # number of floating regfile reads
system.cpu.fp_regfile_writes                    68678                       # number of floating regfile writes
system.cpu.fuPool.fu_ticks_busy::IntALU(0)    280561600                       # Total ticks fu was busy
system.cpu.fuPool.fu_ticks_busy::IntALU(1)    280561600                       # Total ticks fu was busy
system.cpu.fuPool.fu_ticks_busy::IntALU(2)    280561600                       # Total ticks fu was busy
system.cpu.fuPool.fu_ticks_busy::IntALU(3)    280561600                       # Total ticks fu was busy
system.cpu.fuPool.fu_ticks_busy::IntALU(4)    280561600                       # Total ticks fu was busy
system.cpu.fuPool.fu_ticks_busy::IntALU(5)    280561600                       # Total ticks fu was busy
system.cpu.fuPool.fu_ticks_busy::IntMultDiv(0)      8659200                       # Total ticks fu was busy
system.cpu.fuPool.fu_ticks_busy::IntMultDiv(1)      8658800                       # Total ticks fu was busy
system.cpu.fuPool.fu_ticks_busy::FP_ALU(0)       623200                       # Total ticks fu was busy
system.cpu.fuPool.fu_ticks_busy::FP_ALU(1)       622800                       # Total ticks fu was busy
system.cpu.fuPool.fu_ticks_busy::FP_ALU(2)       622800                       # Total ticks fu was busy
system.cpu.fuPool.fu_ticks_busy::FP_ALU(3)       622800                       # Total ticks fu was busy
system.cpu.fuPool.fu_ticks_busy::FP_MultDiv(0)            0                       # Total ticks fu was busy
system.cpu.fuPool.fu_ticks_busy::FP_MultDiv(1)            0                       # Total ticks fu was busy
system.cpu.fuPool.fu_ticks_busy::SIMD_Unit(0)      4812400                       # Total ticks fu was busy
system.cpu.fuPool.fu_ticks_busy::SIMD_Unit(1)      4590400                       # Total ticks fu was busy
system.cpu.fuPool.fu_ticks_busy::SIMD_Unit(2)      4465600                       # Total ticks fu was busy
system.cpu.fuPool.fu_ticks_busy::SIMD_Unit(3)      4688800                       # Total ticks fu was busy
system.cpu.fuPool.fu_ticks_busy::PredALU(0)            0                       # Total ticks fu was busy
system.cpu.fuPool.fu_ticks_busy::RdWrPort(0)    110042000                       # Total ticks fu was busy
system.cpu.fuPool.fu_ticks_busy::RdWrPort(1)    110086400                       # Total ticks fu was busy
system.cpu.fuPool.fu_ticks_busy::RdWrPort(2)    110004400                       # Total ticks fu was busy
system.cpu.fuPool.fu_ticks_busy::RdWrPort(3)    110060400                       # Total ticks fu was busy
system.cpu.fuPool.fu_ticks_busy::IprPort(0)            0                       # Total ticks fu was busy
system.cpu.fuPool.fu_ticks_busy::total     2161929600                       # Total ticks fu was busy
system.cpu.icache.prefetcher.num_hwpf_issued            0                       # number of hwpf issued
system.cpu.icache.prefetcher.pfBufferHit            0                       # number of redundant prefetches already in prefetch queue
system.cpu.icache.prefetcher.pfIdentified            0                       # number of prefetch candidates identified
system.cpu.icache.prefetcher.pfInCache              0                       # number of redundant prefetches already in cache/mshr dropped
system.cpu.icache.prefetcher.pfRemovedFull            0                       # number of prefetches dropped due to prefetch queue size
system.cpu.icache.prefetcher.pfSpanPage             0                       # number of prefetches that crossed the page
system.cpu.idleCycles                          167896                       # Total number of cycles that the CPU has spent unscheduled due to idling
system.cpu.iew.branchMispredicts                27969                       # Number of branch mispredicts detected at execute
system.cpu.iew.exec_branches                   530167                       # Number of branches executed
system.cpu.iew.exec_nop                             0                       # number of nop insts executed
system.cpu.iew.exec_rate                     1.679079                       # Inst execution rate
system.cpu.iew.exec_refs                      1087769                       # number of memory reference insts executed
system.cpu.iew.exec_stores                     292823                       # Number of stores executed
system.cpu.iew.exec_swp                             0                       # number of swp insts executed
system.cpu.iew.iewBlockCycles                  688339                       # Number of cycles IEW is blocking
system.cpu.iew.iewDispLoadInsts                824321                       # Number of dispatched load instructions
system.cpu.iew.iewDispNonSpecInsts               1163                       # Number of dispatched non-speculative instructions
system.cpu.iew.iewDispSquashedInsts               494                       # Number of squashed instructions skipped by dispatch
system.cpu.iew.iewDispStoreInsts               303144                       # Number of dispatched store instructions
system.cpu.iew.iewDispatchedInsts             5738247                       # Number of instructions dispatched to IQ
system.cpu.iew.iewExecLoadInsts                794946                       # Number of load instructions executed
system.cpu.iew.iewExecSquashedInsts             33667                       # Number of squashed instructions skipped in execute
system.cpu.iew.iewExecutedInsts               5397738                       # Number of executed instructions
system.cpu.iew.iewIQFullEvents                   3162                       # Number of times the IQ has become full, causing a stall
system.cpu.iew.iewIdleCycles                        0                       # Number of cycles IEW is idle
system.cpu.iew.iewLSQFullEvents                  7448                       # Number of times the LSQ has become full, causing a stall
system.cpu.iew.iewSquashCycles                  23708                       # Number of cycles IEW is squashing
system.cpu.iew.iewUnblockCycles                 13535                       # Number of cycles IEW is unblocking
system.cpu.iew.lsq.thread0.blockedLoads             0                       # Number of blocked loads due to partial load-store forwarding
system.cpu.iew.lsq.thread0.cacheBlocked           616                       # Number of times an access to memory failed due to the cache being blocked
system.cpu.iew.lsq.thread0.forwLoads            49360                       # Number of loads that had data forwarded from stores
system.cpu.iew.lsq.thread0.ignoredResponses          247                       # Number of memory responses ignored because the instruction is squashed
system.cpu.iew.lsq.thread0.invAddrLoads             0                       # Number of loads ignored due to an invalid address
system.cpu.iew.lsq.thread0.invAddrSwpfs             0                       # Number of software prefetches ignored due to an invalid address
system.cpu.iew.lsq.thread0.memOrderViolation           87                       # Number of memory ordering violations
system.cpu.iew.lsq.thread0.rescheduledLoads            0                       # Number of loads that were rescheduled
system.cpu.iew.lsq.thread0.squashedLoads       112638                       # Number of loads squashed
system.cpu.iew.lsq.thread0.squashedStores        28672                       # Number of stores squashed
system.cpu.iew.memOrderViolationEvents             87                       # Number of memory order violations
system.cpu.iew.predictedNotTakenIncorrect        19806                       # Number of branches that were predicted not taken incorrectly
system.cpu.iew.predictedTakenIncorrect           8163                       # Number of branches that were predicted taken incorrectly
system.cpu.iew.wb_consumers                   7038004                       # num instructions consuming a value
system.cpu.iew.wb_count                       5376227                       # cumulative count of insts written-back
system.cpu.iew.wb_fanout                     0.585048                       # average fanout of values written-back
system.cpu.iew.wb_producers                   4117573                       # num instructions producing a value
system.cpu.iew.wb_rate                       1.672387                       # insts written-back per cycle
system.cpu.iew.wb_sent                        5382818                       # cumulative count of insts sent to commit
system.cpu.int_regfile_reads                  8383204                       # number of integer regfile reads
system.cpu.int_regfile_writes                 4558984                       # number of integer regfile writes
system.cpu.ipc                               0.844972                       # IPC: Instructions Per Cycle
system.cpu.ipc_total                         0.844972                       # IPC: Total IPC of All Threads
system.cpu.iq.FU_type_0::No_OpClass             26581      0.49%      0.49% # Type of FU issued
system.cpu.iq.FU_type_0::IntAlu               4208425     77.48%     77.97% # Type of FU issued
system.cpu.iq.FU_type_0::IntMult                 3331      0.06%     78.03% # Type of FU issued
system.cpu.iq.FU_type_0::IntDiv                 39964      0.74%     78.77% # Type of FU issued
system.cpu.iq.FU_type_0::FloatAdd                4701      0.09%     78.86% # Type of FU issued
system.cpu.iq.FU_type_0::FloatCmp                   0      0.00%     78.86% # Type of FU issued
system.cpu.iq.FU_type_0::FloatCvt                1528      0.03%     78.88% # Type of FU issued
system.cpu.iq.FU_type_0::FloatMult                  0      0.00%     78.88% # Type of FU issued
system.cpu.iq.FU_type_0::FloatMultAcc               0      0.00%     78.88% # Type of FU issued
system.cpu.iq.FU_type_0::FloatDiv                   0      0.00%     78.88% # Type of FU issued
system.cpu.iq.FU_type_0::FloatMisc                  0      0.00%     78.88% # Type of FU issued
system.cpu.iq.FU_type_0::FloatSqrt                  0      0.00%     78.88% # Type of FU issued
system.cpu.iq.FU_type_0::SimdAdd                 7046      0.13%     79.01% # Type of FU issued
system.cpu.iq.FU_type_0::SimdAddAcc                 0      0.00%     79.01% # Type of FU issued
system.cpu.iq.FU_type_0::SimdAlu                15147      0.28%     79.29% # Type of FU issued
system.cpu.iq.FU_type_0::SimdCmp                    0      0.00%     79.29% # Type of FU issued
system.cpu.iq.FU_type_0::SimdCvt                14357      0.26%     79.56% # Type of FU issued
system.cpu.iq.FU_type_0::SimdMisc                7346      0.14%     79.69% # Type of FU issued
system.cpu.iq.FU_type_0::SimdMult                   0      0.00%     79.69% # Type of FU issued
system.cpu.iq.FU_type_0::SimdMultAcc                0      0.00%     79.69% # Type of FU issued
system.cpu.iq.FU_type_0::SimdShift               2497      0.05%     79.74% # Type of FU issued
system.cpu.iq.FU_type_0::SimdShiftAcc               0      0.00%     79.74% # Type of FU issued
system.cpu.iq.FU_type_0::SimdDiv                    0      0.00%     79.74% # Type of FU issued
system.cpu.iq.FU_type_0::SimdSqrt                   0      0.00%     79.74% # Type of FU issued
system.cpu.iq.FU_type_0::SimdFloatAdd               0      0.00%     79.74% # Type of FU issued
system.cpu.iq.FU_type_0::SimdFloatAlu               0      0.00%     79.74% # Type of FU issued
system.cpu.iq.FU_type_0::SimdFloatCmp               0      0.00%     79.74% # Type of FU issued
system.cpu.iq.FU_type_0::SimdFloatCvt               0      0.00%     79.74% # Type of FU issued
system.cpu.iq.FU_type_0::SimdFloatDiv               0      0.00%     79.74% # Type of FU issued
system.cpu.iq.FU_type_0::SimdFloatMisc              0      0.00%     79.74% # Type of FU issued
system.cpu.iq.FU_type_0::SimdFloatMult              0      0.00%     79.74% # Type of FU issued
system.cpu.iq.FU_type_0::SimdFloatMultAcc            0      0.00%     79.74% # Type of FU issued
system.cpu.iq.FU_type_0::SimdFloatSqrt              0      0.00%     79.74% # Type of FU issued
system.cpu.iq.FU_type_0::SimdReduceAdd              0      0.00%     79.74% # Type of FU issued
system.cpu.iq.FU_type_0::SimdReduceAlu              0      0.00%     79.74% # Type of FU issued
system.cpu.iq.FU_type_0::SimdReduceCmp              0      0.00%     79.74% # Type of FU issued
system.cpu.iq.FU_type_0::SimdFloatReduceAdd            0      0.00%     79.74% # Type of FU issued
system.cpu.iq.FU_type_0::SimdFloatReduceCmp            0      0.00%     79.74% # Type of FU issued
system.cpu.iq.FU_type_0::SimdAes                    0      0.00%     79.74% # Type of FU issued
system.cpu.iq.FU_type_0::SimdAesMix                 0      0.00%     79.74% # Type of FU issued
system.cpu.iq.FU_type_0::SimdSha1Hash               0      0.00%     79.74% # Type of FU issued
system.cpu.iq.FU_type_0::SimdSha1Hash2              0      0.00%     79.74% # Type of FU issued
system.cpu.iq.FU_type_0::SimdSha256Hash             0      0.00%     79.74% # Type of FU issued
system.cpu.iq.FU_type_0::SimdSha256Hash2            0      0.00%     79.74% # Type of FU issued
system.cpu.iq.FU_type_0::SimdShaSigma2              0      0.00%     79.74% # Type of FU issued
system.cpu.iq.FU_type_0::SimdShaSigma3              0      0.00%     79.74% # Type of FU issued
system.cpu.iq.FU_type_0::SimdPredAlu                0      0.00%     79.74% # Type of FU issued
system.cpu.iq.FU_type_0::MemRead               778609     14.34%     94.07% # Type of FU issued
system.cpu.iq.FU_type_0::MemWrite              281530      5.18%     99.26% # Type of FU issued
system.cpu.iq.FU_type_0::FloatMemRead           26421      0.49%     99.74% # Type of FU issued
system.cpu.iq.FU_type_0::FloatMemWrite          13925      0.26%    100.00% # Type of FU issued
system.cpu.iq.FU_type_0::IprAccess                  0      0.00%    100.00% # Type of FU issued
system.cpu.iq.FU_type_0::InstPrefetch               0      0.00%    100.00% # Type of FU issued
system.cpu.iq.FU_type_0::total                5431408                       # Type of FU issued
system.cpu.iq.fp_alu_accesses                   94010                       # Number of floating point alu accesses
system.cpu.iq.fp_inst_queue_reads              189369                       # Number of floating instruction queue reads
system.cpu.iq.fp_inst_queue_wakeup_accesses        90399                       # Number of floating instruction queue wakeup accesses
system.cpu.iq.fp_inst_queue_writes             136631                       # Number of floating instruction queue writes
system.cpu.iq.fu_busy_cnt                           0                       # FU busy when requested
system.cpu.iq.fu_busy_rate                          0                       # FU busy rate (busy events/executed inst)
system.cpu.iq.fu_full::No_OpClass                   0                       # attempts to use FU when none available
system.cpu.iq.fu_full::IntAlu                       0                       # attempts to use FU when none available
system.cpu.iq.fu_full::IntMult                      0                       # attempts to use FU when none available
system.cpu.iq.fu_full::IntDiv                       0                       # attempts to use FU when none available
system.cpu.iq.fu_full::FloatAdd                     0                       # attempts to use FU when none available
system.cpu.iq.fu_full::FloatCmp                     0                       # attempts to use FU when none available
system.cpu.iq.fu_full::FloatCvt                     0                       # attempts to use FU when none available
system.cpu.iq.fu_full::FloatMult                    0                       # attempts to use FU when none available
system.cpu.iq.fu_full::FloatMultAcc                 0                       # attempts to use FU when none available
system.cpu.iq.fu_full::FloatDiv                     0                       # attempts to use FU when none available
system.cpu.iq.fu_full::FloatMisc                    0                       # attempts to use FU when none available
system.cpu.iq.fu_full::FloatSqrt                    0                       # attempts to use FU when none available
system.cpu.iq.fu_full::SimdAdd                      0                       # attempts to use FU when none available
system.cpu.iq.fu_full::SimdAddAcc                   0                       # attempts to use FU when none available
system.cpu.iq.fu_full::SimdAlu                      0                       # attempts to use FU when none available
system.cpu.iq.fu_full::SimdCmp                      0                       # attempts to use FU when none available
system.cpu.iq.fu_full::SimdCvt                      0                       # attempts to use FU when none available
system.cpu.iq.fu_full::SimdMisc                     0                       # attempts to use FU when none available
system.cpu.iq.fu_full::SimdMult                     0                       # attempts to use FU when none available
system.cpu.iq.fu_full::SimdMultAcc                  0                       # attempts to use FU when none available
system.cpu.iq.fu_full::SimdShift                    0                       # attempts to use FU when none available
system.cpu.iq.fu_full::SimdShiftAcc                 0                       # attempts to use FU when none available
system.cpu.iq.fu_full::SimdDiv                      0                       # attempts to use FU when none available
system.cpu.iq.fu_full::SimdSqrt                     0                       # attempts to use FU when none available
system.cpu.iq.fu_full::SimdFloatAdd                 0                       # attempts to use FU when none available
system.cpu.iq.fu_full::SimdFloatAlu                 0                       # attempts to use FU when none available
system.cpu.iq.fu_full::SimdFloatCmp                 0                       # attempts to use FU when none available
system.cpu.iq.fu_full::SimdFloatCvt                 0                       # attempts to use FU when none available
system.cpu.iq.fu_full::SimdFloatDiv                 0                       # attempts to use FU when none available
system.cpu.iq.fu_full::SimdFloatMisc                0                       # attempts to use FU when none available
system.cpu.iq.fu_full::SimdFloatMult                0                       # attempts to use FU when none available
system.cpu.iq.fu_full::SimdFloatMultAcc             0                       # attempts to use FU when none available
system.cpu.iq.fu_full::SimdFloatSqrt                0                       # attempts to use FU when none available
system.cpu.iq.fu_full::SimdReduceAdd                0                       # attempts to use FU when none available
system.cpu.iq.fu_full::SimdReduceAlu                0                       # attempts to use FU when none available
system.cpu.iq.fu_full::SimdReduceCmp                0                       # attempts to use FU when none available
system.cpu.iq.fu_full::SimdFloatReduceAdd            0                       # attempts to use FU when none available
system.cpu.iq.fu_full::SimdFloatReduceCmp            0                       # attempts to use FU when none available
system.cpu.iq.fu_full::SimdAes                      0                       # attempts to use FU when none available
system.cpu.iq.fu_full::SimdAesMix                   0                       # attempts to use FU when none available
system.cpu.iq.fu_full::SimdSha1Hash                 0                       # attempts to use FU when none available
system.cpu.iq.fu_full::SimdSha1Hash2                0                       # attempts to use FU when none available
system.cpu.iq.fu_full::SimdSha256Hash               0                       # attempts to use FU when none available
system.cpu.iq.fu_full::SimdSha256Hash2              0                       # attempts to use FU when none available
system.cpu.iq.fu_full::SimdShaSigma2                0                       # attempts to use FU when none available
system.cpu.iq.fu_full::SimdShaSigma3                0                       # attempts to use FU when none available
system.cpu.iq.fu_full::SimdPredAlu                  0                       # attempts to use FU when none available
system.cpu.iq.fu_full::MemRead                      0                       # attempts to use FU when none available
system.cpu.iq.fu_full::MemWrite                     0                       # attempts to use FU when none available
system.cpu.iq.fu_full::FloatMemRead                 0                       # attempts to use FU when none available
system.cpu.iq.fu_full::FloatMemWrite                0                       # attempts to use FU when none available
system.cpu.iq.fu_full::IprAccess                    0                       # attempts to use FU when none available
system.cpu.iq.fu_full::InstPrefetch                 0                       # attempts to use FU when none available
system.cpu.iq.int_alu_accesses                5310817                       # Number of integer alu accesses
system.cpu.iq.int_inst_queue_reads           13737009                       # Number of integer instruction queue reads
system.cpu.iq.int_inst_queue_wakeup_accesses      5285828                       # Number of integer instruction queue wakeup accesses
system.cpu.iq.int_inst_queue_writes           6460622                       # Number of integer instruction queue writes
system.cpu.iq.iqInstsAdded                    5736882                       # Number of instructions added to the IQ (excludes non-spec)
system.cpu.iq.iqInstsIssued                   5431408                       # Number of instructions issued
system.cpu.iq.iqNonSpecInstsAdded                1365                       # Number of non-speculative instructions added to the IQ
system.cpu.iq.iqSquashedInstsExamined          858919                       # Number of squashed instructions iterated over during squash; mainly for profiling
system.cpu.iq.iqSquashedInstsIssued             16759                       # Number of squashed instructions issued
system.cpu.iq.iqSquashedNonSpecRemoved            425                       # Number of squashed non-spec instructions that were removed
system.cpu.iq.iqSquashedOperandsExamined      1262365                       # Number of squashed operands that are examined and possibly removed from graph
system.cpu.iq.issued_per_cycle::samples       3046806                       # Number of insts issued each cycle
system.cpu.iq.issued_per_cycle::mean         1.782656                       # Number of insts issued each cycle
system.cpu.iq.issued_per_cycle::stdev        1.653037                       # Number of insts issued each cycle
system.cpu.iq.issued_per_cycle::underflows            0      0.00%      0.00% # Number of insts issued each cycle
system.cpu.iq.issued_per_cycle::0             1188439     39.01%     39.01% # Number of insts issued each cycle
system.cpu.iq.issued_per_cycle::1              248829      8.17%     47.17% # Number of insts issued each cycle
system.cpu.iq.issued_per_cycle::2              397701     13.05%     60.23% # Number of insts issued each cycle
system.cpu.iq.issued_per_cycle::3              460171     15.10%     75.33% # Number of insts issued each cycle
system.cpu.iq.issued_per_cycle::4              751666     24.67%    100.00% # Number of insts issued each cycle
system.cpu.iq.issued_per_cycle::overflows            0      0.00%    100.00% # Number of insts issued each cycle
system.cpu.iq.issued_per_cycle::min_value            0                       # Number of insts issued each cycle
system.cpu.iq.issued_per_cycle::max_value            4                       # Number of insts issued each cycle
system.cpu.iq.issued_per_cycle::total         3046806                       # Number of insts issued each cycle
system.cpu.iq.rate                           1.689553                       # Inst issue rate
system.cpu.iq.vec_alu_accesses                      0                       # Number of vector alu accesses
system.cpu.iq.vec_inst_queue_reads                  0                       # Number of vector instruction queue reads
system.cpu.iq.vec_inst_queue_wakeup_accesses            0                       # Number of vector instruction queue wakeup accesses
system.cpu.iq.vec_inst_queue_writes                 0                       # Number of vector instruction queue writes
system.cpu.itb.rdAccesses                           0                       # TLB accesses on read requests
system.cpu.itb.rdMisses                             0                       # TLB misses on read requests
system.cpu.itb.wrAccesses                      345241                       # TLB accesses on write requests
system.cpu.itb.wrMisses                           369                       # TLB misses on write requests
system.cpu.memDep0.conflictingLoads             13339                       # Number of conflicting loads.
system.cpu.memDep0.conflictingStores             6730                       # Number of conflicting stores.
system.cpu.memDep0.insertedLoads               824321                       # Number of loads inserted to the mem dependence unit.
system.cpu.memDep0.insertedStores              303144                       # Number of stores inserted to the mem dependence unit.
system.cpu.misc_regfile_reads                 2175275                       # number of misc regfile reads
system.cpu.misc_regfile_writes                    837                       # number of misc regfile writes
system.cpu.numCycles                          3214702                       # number of cpu cycles simulated
system.cpu.numWorkItemsCompleted                    0                       # number of work items this cpu completed
system.cpu.numWorkItemsStarted                      0                       # number of work items this cpu started
system.cpu.process.numSyscalls                    102                       # Number of system calls
system.cpu.rename.BlockCycles                  826972                       # Number of cycles rename is blocking
system.cpu.rename.CommittedMaps               6242919                       # Number of HB maps that are committed
system.cpu.rename.FullRegisterEvents               58                       # Number of times there has been no free registers
system.cpu.rename.IQFullEvents                  44755                       # Number of times rename has blocked due to IQ full
system.cpu.rename.IdleCycles                   460963                       # Number of cycles rename is idle
system.cpu.rename.LQFullEvents                  24616                       # Number of times rename has blocked due to LQ full
system.cpu.rename.ROBFullEvents                  4486                       # Number of times rename has blocked due to ROB full
system.cpu.rename.RenameLookups              15183229                       # Number of register rename lookups that rename has made
system.cpu.rename.RenamedInsts                5873149                       # Number of instructions processed by rename
system.cpu.rename.RenamedOperands             7587230                       # Number of destination operands rename has renamed
system.cpu.rename.RunCycles                   1529451                       # Number of cycles rename is running
system.cpu.rename.SQFullEvents                  75866                       # Number of times rename has blocked due to SQ full
system.cpu.rename.SquashCycles                  23708                       # Number of cycles rename is squashing
system.cpu.rename.UnblockCycles                182491                       # Number of cycles rename is unblocking
system.cpu.rename.UndoneMaps                  1344288                       # Number of HB maps that are undone due to squashing
system.cpu.rename.fp_rename_lookups            160752                       # Number of floating rename lookups
system.cpu.rename.int_rename_lookups          9282175                       # Number of integer rename lookups
system.cpu.rename.serializeStallCycles          23221                       # count of cycles rename stalled for serializing inst
system.cpu.rename.serializingInsts               1143                       # count of serializing insts renamed
system.cpu.rename.skidInsts                    204879                       # count of insts added to the skid buffer
system.cpu.rename.tempSerializingInsts           1212                       # count of temporary serializing insts renamed
system.cpu.rob.rob_reads                      7721497                       # The number of ROB reads
system.cpu.rob.rob_writes                    11711894                       # The number of ROB writes
system.cpu.timesIdled                            1772                       # Number of times that the entire CPU went into an idle state and unscheduled itself
system.l2bus.snoop_filter.hit_multi_requests            9                       # Number of requests hitting in the snoop filter with multiple (>1) holders of the requested data.
system.l2bus.snoop_filter.hit_multi_snoops            0                       # Number of snoops hitting in the snoop filter with multiple (>1) holders of the requested data.
system.l2bus.snoop_filter.hit_single_requests        18781                       # Number of requests hitting in the snoop filter with a single holder of the requested data.
system.l2bus.snoop_filter.hit_single_snoops          446                       # Number of snoops hitting in the snoop filter with a single holder of the requested data.
system.l2bus.snoop_filter.tot_requests          38840                       # Total number of requests made to the snoop filter.
system.l2bus.snoop_filter.tot_snoops              446                       # Total number of snoops made to the snoop filter.
system.l2cache.prefetcher.num_hwpf_issued          697                       # number of hwpf issued
system.l2cache.prefetcher.pfBufferHit               0                       # number of redundant prefetches already in prefetch queue
system.l2cache.prefetcher.pfIdentified            697                       # number of prefetch candidates identified
system.l2cache.prefetcher.pfInCache                 0                       # number of redundant prefetches already in cache/mshr dropped
system.l2cache.prefetcher.pfRemovedFull             0                       # number of prefetches dropped due to prefetch queue size
system.l2cache.prefetcher.pfSpanPage              119                       # number of prefetches that crossed the page
system.membus.snoop_filter.hit_multi_requests            0                       # Number of requests hitting in the snoop filter with multiple (>1) holders of the requested data.
system.membus.snoop_filter.hit_multi_snoops            0                       # Number of snoops hitting in the snoop filter with multiple (>1) holders of the requested data.
system.membus.snoop_filter.hit_single_requests         9530                       # Number of requests hitting in the snoop filter with a single holder of the requested data.
system.membus.snoop_filter.hit_single_snoops            0                       # Number of snoops hitting in the snoop filter with a single holder of the requested data.
system.membus.snoop_filter.tot_requests         23184                       # Total number of requests made to the snoop filter.
system.membus.snoop_filter.tot_snoops               0                       # Total number of snoops made to the snoop filter.
system.membus.pwrStateResidencyTicks::UNDEFINED   1285880400                       # Cumulative time (in ticks) in various power states
system.membus.trans_dist::ReadResp              12320                       # Transaction distribution
system.membus.trans_dist::WritebackDirty         1354                       # Transaction distribution
system.membus.trans_dist::CleanEvict             8176                       # Transaction distribution
system.membus.trans_dist::ReadExReq              1334                       # Transaction distribution
system.membus.trans_dist::ReadExResp             1334                       # Transaction distribution
system.membus.trans_dist::ReadSharedReq         12320                       # Transaction distribution
system.membus.pkt_count_system.l2cache.mem_side::system.mem_ctrl.port        36838                       # Packet count per connected master and slave (bytes)
system.membus.pkt_count_system.l2cache.mem_side::total        36838                       # Packet count per connected master and slave (bytes)
system.membus.pkt_count::total                  36838                       # Packet count per connected master and slave (bytes)
system.membus.pkt_size_system.l2cache.mem_side::system.mem_ctrl.port       960512                       # Cumulative packet size per connected master and slave (bytes)
system.membus.pkt_size_system.l2cache.mem_side::total       960512                       # Cumulative packet size per connected master and slave (bytes)
system.membus.pkt_size::total                  960512                       # Cumulative packet size per connected master and slave (bytes)
system.membus.snoops                                0                       # Total snoops (count)
system.membus.snoopTraffic                          0                       # Total snoop traffic (bytes)
system.membus.snoop_fanout::samples             13654                       # Request fanout histogram
system.membus.snoop_fanout::mean                    0                       # Request fanout histogram
system.membus.snoop_fanout::stdev                   0                       # Request fanout histogram
system.membus.snoop_fanout::underflows              0      0.00%      0.00% # Request fanout histogram
system.membus.snoop_fanout::0                   13654    100.00%    100.00% # Request fanout histogram
system.membus.snoop_fanout::1                       0      0.00%    100.00% # Request fanout histogram
system.membus.snoop_fanout::overflows               0      0.00%    100.00% # Request fanout histogram
system.membus.snoop_fanout::min_value               0                       # Request fanout histogram
system.membus.snoop_fanout::max_value               0                       # Request fanout histogram
system.membus.snoop_fanout::total               13654                       # Request fanout histogram
system.membus.reqLayer2.occupancy            11467819                       # Layer occupancy (ticks)
system.membus.reqLayer2.utilization               0.9                       # Layer utilization (%)
system.membus.respLayer0.occupancy           29634681                       # Layer occupancy (ticks)
system.membus.respLayer0.utilization              2.3                       # Layer utilization (%)
system.l2bus.pwrStateResidencyTicks::UNDEFINED   1285880400                       # Cumulative time (in ticks) in various power states
system.l2bus.trans_dist::ReadResp               17983                       # Transaction distribution
system.l2bus.trans_dist::WritebackDirty          4177                       # Transaction distribution
system.l2bus.trans_dist::CleanEvict             24226                       # Transaction distribution
system.l2bus.trans_dist::HardPFReq               1009                       # Transaction distribution
system.l2bus.trans_dist::ReadExReq               2077                       # Transaction distribution
system.l2bus.trans_dist::ReadExResp              2077                       # Transaction distribution
system.l2bus.trans_dist::ReadSharedReq          17983                       # Transaction distribution
system.l2bus.pkt_count_system.cpu.icache.mem_side::system.l2cache.cpu_side         9174                       # Packet count per connected master and slave (bytes)
system.l2bus.pkt_count_system.cpu.dcache.mem_side::system.l2cache.cpu_side        49724                       # Packet count per connected master and slave (bytes)
system.l2bus.pkt_count::total                   58898                       # Packet count per connected master and slave (bytes)
system.l2bus.pkt_size_system.cpu.icache.mem_side::system.l2cache.cpu_side       201088                       # Cumulative packet size per connected master and slave (bytes)
system.l2bus.pkt_size_system.cpu.dcache.mem_side::system.l2cache.cpu_side      1263296                       # Cumulative packet size per connected master and slave (bytes)
system.l2bus.pkt_size::total                  1464384                       # Cumulative packet size per connected master and slave (bytes)
system.l2bus.snoops                             10634                       # Total snoops (count)
system.l2bus.snoopTraffic                       86784                       # Total snoop traffic (bytes)
system.l2bus.snoop_fanout::samples              30692                       # Request fanout histogram
system.l2bus.snoop_fanout::mean              0.014857                       # Request fanout histogram
system.l2bus.snoop_fanout::stdev             0.120984                       # Request fanout histogram
system.l2bus.snoop_fanout::underflows               0      0.00%      0.00% # Request fanout histogram
system.l2bus.snoop_fanout::0                    30236     98.51%     98.51% # Request fanout histogram
system.l2bus.snoop_fanout::1                      456      1.49%    100.00% # Request fanout histogram
system.l2bus.snoop_fanout::2                        0      0.00%    100.00% # Request fanout histogram
system.l2bus.snoop_fanout::overflows                0      0.00%    100.00% # Request fanout histogram
system.l2bus.snoop_fanout::min_value                0                       # Request fanout histogram
system.l2bus.snoop_fanout::max_value                1                       # Request fanout histogram
system.l2bus.snoop_fanout::total                30692                       # Request fanout histogram
system.l2bus.respLayer1.occupancy            20300796                       # Layer occupancy (ticks)
system.l2bus.respLayer1.utilization               1.6                       # Layer utilization (%)
system.l2bus.reqLayer0.occupancy             19198752                       # Layer occupancy (ticks)
system.l2bus.reqLayer0.utilization                1.5                       # Layer utilization (%)
system.l2bus.respLayer0.occupancy             3773199                       # Layer occupancy (ticks)
system.l2bus.respLayer0.utilization               0.3                       # Layer utilization (%)
system.clk_domain.clock                           400                       # Clock period in ticks
system.clk_domain.voltage_domain.voltage            1                       # Voltage in Volts
system.cpu.pwrStateResidencyTicks::ON      1285880400                       # Cumulative time (in ticks) in various power states
system.cpu.icache.pwrStateResidencyTicks::UNDEFINED   1285880400                       # Cumulative time (in ticks) in various power states
system.cpu.icache.demand_hits::.cpu.inst       341252                       # number of demand (read+write) hits
system.cpu.icache.demand_hits::total           341252                       # number of demand (read+write) hits
system.cpu.icache.overall_hits::.cpu.inst       341252                       # number of overall hits
system.cpu.icache.overall_hits::total          341252                       # number of overall hits
system.cpu.icache.demand_misses::.cpu.inst         3878                       # number of demand (read+write) misses
system.cpu.icache.demand_misses::total           3878                       # number of demand (read+write) misses
system.cpu.icache.overall_misses::.cpu.inst         3878                       # number of overall misses
system.cpu.icache.overall_misses::total          3878                       # number of overall misses
system.cpu.icache.demand_miss_latency::.cpu.inst    183796400                       # number of demand (read+write) miss cycles
system.cpu.icache.demand_miss_latency::total    183796400                       # number of demand (read+write) miss cycles
system.cpu.icache.overall_miss_latency::.cpu.inst    183796400                       # number of overall miss cycles
system.cpu.icache.overall_miss_latency::total    183796400                       # number of overall miss cycles
system.cpu.icache.demand_accesses::.cpu.inst       345130                       # number of demand (read+write) accesses
system.cpu.icache.demand_accesses::total       345130                       # number of demand (read+write) accesses
system.cpu.icache.overall_accesses::.cpu.inst       345130                       # number of overall (read+write) accesses
system.cpu.icache.overall_accesses::total       345130                       # number of overall (read+write) accesses
system.cpu.icache.demand_miss_rate::.cpu.inst     0.011236                       # miss rate for demand accesses
system.cpu.icache.demand_miss_rate::total     0.011236                       # miss rate for demand accesses
system.cpu.icache.overall_miss_rate::.cpu.inst     0.011236                       # miss rate for overall accesses
system.cpu.icache.overall_miss_rate::total     0.011236                       # miss rate for overall accesses
system.cpu.icache.demand_avg_miss_latency::.cpu.inst 47394.636411                       # average overall miss latency
system.cpu.icache.demand_avg_miss_latency::total 47394.636411                       # average overall miss latency
system.cpu.icache.overall_avg_miss_latency::.cpu.inst 47394.636411                       # average overall miss latency
system.cpu.icache.overall_avg_miss_latency::total 47394.636411                       # average overall miss latency
system.cpu.icache.blocked_cycles::no_mshrs          130                       # number of cycles access was blocked
system.cpu.icache.blocked_cycles::no_targets            0                       # number of cycles access was blocked
system.cpu.icache.blocked::no_mshrs                 7                       # number of cycles access was blocked
system.cpu.icache.blocked::no_targets               0                       # number of cycles access was blocked
system.cpu.icache.avg_blocked_cycles::no_mshrs    18.571429                       # average number of cycles each access was blocked
system.cpu.icache.avg_blocked_cycles::no_targets          nan                       # average number of cycles each access was blocked
system.cpu.icache.demand_mshr_hits::.cpu.inst          733                       # number of demand (read+write) MSHR hits
system.cpu.icache.demand_mshr_hits::total          733                       # number of demand (read+write) MSHR hits
system.cpu.icache.overall_mshr_hits::.cpu.inst          733                       # number of overall MSHR hits
system.cpu.icache.overall_mshr_hits::total          733                       # number of overall MSHR hits
system.cpu.icache.demand_mshr_misses::.cpu.inst         3145                       # number of demand (read+write) MSHR misses
system.cpu.icache.demand_mshr_misses::total         3145                       # number of demand (read+write) MSHR misses
system.cpu.icache.overall_mshr_misses::.cpu.inst         3145                       # number of overall MSHR misses
system.cpu.icache.overall_mshr_misses::total         3145                       # number of overall MSHR misses
system.cpu.icache.demand_mshr_miss_latency::.cpu.inst    148342000                       # number of demand (read+write) MSHR miss cycles
system.cpu.icache.demand_mshr_miss_latency::total    148342000                       # number of demand (read+write) MSHR miss cycles
system.cpu.icache.overall_mshr_miss_latency::.cpu.inst    148342000                       # number of overall MSHR miss cycles
system.cpu.icache.overall_mshr_miss_latency::total    148342000                       # number of overall MSHR miss cycles
system.cpu.icache.demand_mshr_miss_rate::.cpu.inst     0.009113                       # mshr miss rate for demand accesses
system.cpu.icache.demand_mshr_miss_rate::total     0.009113                       # mshr miss rate for demand accesses
system.cpu.icache.overall_mshr_miss_rate::.cpu.inst     0.009113                       # mshr miss rate for overall accesses
system.cpu.icache.overall_mshr_miss_rate::total     0.009113                       # mshr miss rate for overall accesses
system.cpu.icache.demand_avg_mshr_miss_latency::.cpu.inst 47167.567568                       # average overall mshr miss latency
system.cpu.icache.demand_avg_mshr_miss_latency::total 47167.567568                       # average overall mshr miss latency
system.cpu.icache.overall_avg_mshr_miss_latency::.cpu.inst 47167.567568                       # average overall mshr miss latency
system.cpu.icache.overall_avg_mshr_miss_latency::total 47167.567568                       # average overall mshr miss latency
system.cpu.icache.replacements                   2888                       # number of replacements
system.cpu.icache.ReadReq_hits::.cpu.inst       341252                       # number of ReadReq hits
system.cpu.icache.ReadReq_hits::total          341252                       # number of ReadReq hits
system.cpu.icache.ReadReq_misses::.cpu.inst         3878                       # number of ReadReq misses
system.cpu.icache.ReadReq_misses::total          3878                       # number of ReadReq misses
system.cpu.icache.ReadReq_miss_latency::.cpu.inst    183796400                       # number of ReadReq miss cycles
system.cpu.icache.ReadReq_miss_latency::total    183796400                       # number of ReadReq miss cycles
system.cpu.icache.ReadReq_accesses::.cpu.inst       345130                       # number of ReadReq accesses(hits+misses)
system.cpu.icache.ReadReq_accesses::total       345130                       # number of ReadReq accesses(hits+misses)
system.cpu.icache.ReadReq_miss_rate::.cpu.inst     0.011236                       # miss rate for ReadReq accesses
system.cpu.icache.ReadReq_miss_rate::total     0.011236                       # miss rate for ReadReq accesses
system.cpu.icache.ReadReq_avg_miss_latency::.cpu.inst 47394.636411                       # average ReadReq miss latency
system.cpu.icache.ReadReq_avg_miss_latency::total 47394.636411                       # average ReadReq miss latency
system.cpu.icache.ReadReq_mshr_hits::.cpu.inst          733                       # number of ReadReq MSHR hits
system.cpu.icache.ReadReq_mshr_hits::total          733                       # number of ReadReq MSHR hits
system.cpu.icache.ReadReq_mshr_misses::.cpu.inst         3145                       # number of ReadReq MSHR misses
system.cpu.icache.ReadReq_mshr_misses::total         3145                       # number of ReadReq MSHR misses
system.cpu.icache.ReadReq_mshr_miss_latency::.cpu.inst    148342000                       # number of ReadReq MSHR miss cycles
system.cpu.icache.ReadReq_mshr_miss_latency::total    148342000                       # number of ReadReq MSHR miss cycles
system.cpu.icache.ReadReq_mshr_miss_rate::.cpu.inst     0.009113                       # mshr miss rate for ReadReq accesses
system.cpu.icache.ReadReq_mshr_miss_rate::total     0.009113                       # mshr miss rate for ReadReq accesses
system.cpu.icache.ReadReq_avg_mshr_miss_latency::.cpu.inst 47167.567568                       # average ReadReq mshr miss latency
system.cpu.icache.ReadReq_avg_mshr_miss_latency::total 47167.567568                       # average ReadReq mshr miss latency
system.cpu.icache.prefetcher.pwrStateResidencyTicks::UNDEFINED   1285880400                       # Cumulative time (in ticks) in various power states
system.cpu.icache.tags.pwrStateResidencyTicks::UNDEFINED   1285880400                       # Cumulative time (in ticks) in various power states
system.cpu.icache.tags.tagsinuse           253.836659                       # Cycle average of tags in use
system.cpu.icache.tags.total_refs              279249                       # Total number of references to valid blocks.
system.cpu.icache.tags.sampled_refs              2888                       # Sample count of references to valid blocks.
system.cpu.icache.tags.avg_refs             96.692867                       # Average number of references to valid blocks.
system.cpu.icache.tags.warmup_cycle             66400                       # Cycle when the warmup percentage was hit.
system.cpu.icache.tags.occ_blocks::.cpu.inst   253.836659                       # Average occupied blocks per requestor
system.cpu.icache.tags.occ_percent::.cpu.inst     0.991549                       # Average percentage of cache occupancy
system.cpu.icache.tags.occ_percent::total     0.991549                       # Average percentage of cache occupancy
system.cpu.icache.tags.occ_task_id_blocks::1024          256                       # Occupied blocks per task id
system.cpu.icache.tags.age_task_id_blocks_1024::0           65                       # Occupied blocks per task id
system.cpu.icache.tags.age_task_id_blocks_1024::2          189                       # Occupied blocks per task id
system.cpu.icache.tags.age_task_id_blocks_1024::3            2                       # Occupied blocks per task id
system.cpu.icache.tags.occ_task_id_percent::1024            1                       # Percentage of cache occupancy per task id
system.cpu.icache.tags.tag_accesses            693404                       # Number of tag accesses
system.cpu.icache.tags.data_accesses           693404                       # Number of data accesses
system.cpu.dtb.walker.pwrStateResidencyTicks::UNDEFINED   1285880400                       # Cumulative time (in ticks) in various power states
system.cpu.interrupts.clk_domain.clock           6400                       # Clock period in ticks
system.cpu.itb.walker.pwrStateResidencyTicks::UNDEFINED   1285880400                       # Cumulative time (in ticks) in various power states
system.cpu.dcache.pwrStateResidencyTicks::UNDEFINED   1285880400                       # Cumulative time (in ticks) in various power states
system.cpu.dcache.demand_hits::.cpu.data       982196                       # number of demand (read+write) hits
system.cpu.dcache.demand_hits::total           982196                       # number of demand (read+write) hits
system.cpu.dcache.overall_hits::.cpu.data       982196                       # number of overall hits
system.cpu.dcache.overall_hits::total          982196                       # number of overall hits
system.cpu.dcache.demand_misses::.cpu.data        35139                       # number of demand (read+write) misses
system.cpu.dcache.demand_misses::total          35139                       # number of demand (read+write) misses
system.cpu.dcache.overall_misses::.cpu.data        35139                       # number of overall misses
system.cpu.dcache.overall_misses::total         35139                       # number of overall misses
system.cpu.dcache.demand_miss_latency::.cpu.data   1689909200                       # number of demand (read+write) miss cycles
system.cpu.dcache.demand_miss_latency::total   1689909200                       # number of demand (read+write) miss cycles
system.cpu.dcache.overall_miss_latency::.cpu.data   1689909200                       # number of overall miss cycles
system.cpu.dcache.overall_miss_latency::total   1689909200                       # number of overall miss cycles
system.cpu.dcache.demand_accesses::.cpu.data      1017335                       # number of demand (read+write) accesses
system.cpu.dcache.demand_accesses::total      1017335                       # number of demand (read+write) accesses
system.cpu.dcache.overall_accesses::.cpu.data      1017335                       # number of overall (read+write) accesses
system.cpu.dcache.overall_accesses::total      1017335                       # number of overall (read+write) accesses
system.cpu.dcache.demand_miss_rate::.cpu.data     0.034540                       # miss rate for demand accesses
system.cpu.dcache.demand_miss_rate::total     0.034540                       # miss rate for demand accesses
system.cpu.dcache.overall_miss_rate::.cpu.data     0.034540                       # miss rate for overall accesses
system.cpu.dcache.overall_miss_rate::total     0.034540                       # miss rate for overall accesses
system.cpu.dcache.demand_avg_miss_latency::.cpu.data 48092.125558                       # average overall miss latency
system.cpu.dcache.demand_avg_miss_latency::total 48092.125558                       # average overall miss latency
system.cpu.dcache.overall_avg_miss_latency::.cpu.data 48092.125558                       # average overall miss latency
system.cpu.dcache.overall_avg_miss_latency::total 48092.125558                       # average overall miss latency
system.cpu.dcache.blocked_cycles::no_mshrs        30018                       # number of cycles access was blocked
system.cpu.dcache.blocked_cycles::no_targets          155                       # number of cycles access was blocked
system.cpu.dcache.blocked::no_mshrs               778                       # number of cycles access was blocked
system.cpu.dcache.blocked::no_targets               2                       # number of cycles access was blocked
system.cpu.dcache.avg_blocked_cycles::no_mshrs    38.583548                       # average number of cycles each access was blocked
system.cpu.dcache.avg_blocked_cycles::no_targets    77.500000                       # average number of cycles each access was blocked
system.cpu.dcache.unused_prefetches              1694                       # number of HardPF blocks evicted w/o reference
system.cpu.dcache.writebacks::.writebacks         2823                       # number of writebacks
system.cpu.dcache.writebacks::total              2823                       # number of writebacks
system.cpu.dcache.demand_mshr_hits::.cpu.data        22472                       # number of demand (read+write) MSHR hits
system.cpu.dcache.demand_mshr_hits::total        22472                       # number of demand (read+write) MSHR hits
system.cpu.dcache.overall_mshr_hits::.cpu.data        22472                       # number of overall MSHR hits
system.cpu.dcache.overall_mshr_hits::total        22472                       # number of overall MSHR hits
system.cpu.dcache.demand_mshr_misses::.cpu.data        12667                       # number of demand (read+write) MSHR misses
system.cpu.dcache.demand_mshr_misses::total        12667                       # number of demand (read+write) MSHR misses
system.cpu.dcache.overall_mshr_misses::.cpu.data        12667                       # number of overall MSHR misses
system.cpu.dcache.overall_mshr_misses::.cpu.dcache.prefetcher         4249                       # number of overall MSHR misses
system.cpu.dcache.overall_mshr_misses::total        16916                       # number of overall MSHR misses
system.cpu.dcache.demand_mshr_miss_latency::.cpu.data    580256400                       # number of demand (read+write) MSHR miss cycles
system.cpu.dcache.demand_mshr_miss_latency::total    580256400                       # number of demand (read+write) MSHR miss cycles
system.cpu.dcache.overall_mshr_miss_latency::.cpu.data    580256400                       # number of overall MSHR miss cycles
system.cpu.dcache.overall_mshr_miss_latency::.cpu.dcache.prefetcher    248228260                       # number of overall MSHR miss cycles
system.cpu.dcache.overall_mshr_miss_latency::total    828484660                       # number of overall MSHR miss cycles
system.cpu.dcache.demand_mshr_miss_rate::.cpu.data     0.012451                       # mshr miss rate for demand accesses
system.cpu.dcache.demand_mshr_miss_rate::total     0.012451                       # mshr miss rate for demand accesses
system.cpu.dcache.overall_mshr_miss_rate::.cpu.data     0.012451                       # mshr miss rate for overall accesses
system.cpu.dcache.overall_mshr_miss_rate::.cpu.dcache.prefetcher          inf                       # mshr miss rate for overall accesses
system.cpu.dcache.overall_mshr_miss_rate::total     0.016628                       # mshr miss rate for overall accesses
system.cpu.dcache.demand_avg_mshr_miss_latency::.cpu.data 45808.510302                       # average overall mshr miss latency
system.cpu.dcache.demand_avg_mshr_miss_latency::total 45808.510302                       # average overall mshr miss latency
system.cpu.dcache.overall_avg_mshr_miss_latency::.cpu.data 45808.510302                       # average overall mshr miss latency
system.cpu.dcache.overall_avg_mshr_miss_latency::.cpu.dcache.prefetcher 58420.395387                       # average overall mshr miss latency
system.cpu.dcache.overall_avg_mshr_miss_latency::total 48976.392764                       # average overall mshr miss latency
system.cpu.dcache.replacements                  15892                       # number of replacements
system.cpu.dcache.ReadReq_hits::.cpu.data       709825                       # number of ReadReq hits
system.cpu.dcache.ReadReq_hits::total          709825                       # number of ReadReq hits
system.cpu.dcache.ReadReq_misses::.cpu.data        33029                       # number of ReadReq misses
system.cpu.dcache.ReadReq_misses::total         33029                       # number of ReadReq misses
system.cpu.dcache.ReadReq_miss_latency::.cpu.data   1585277600                       # number of ReadReq miss cycles
system.cpu.dcache.ReadReq_miss_latency::total   1585277600                       # number of ReadReq miss cycles
system.cpu.dcache.ReadReq_accesses::.cpu.data       742854                       # number of ReadReq accesses(hits+misses)
system.cpu.dcache.ReadReq_accesses::total       742854                       # number of ReadReq accesses(hits+misses)
system.cpu.dcache.ReadReq_miss_rate::.cpu.data     0.044462                       # miss rate for ReadReq accesses
system.cpu.dcache.ReadReq_miss_rate::total     0.044462                       # miss rate for ReadReq accesses
system.cpu.dcache.ReadReq_avg_miss_latency::.cpu.data 47996.536377                       # average ReadReq miss latency
system.cpu.dcache.ReadReq_avg_miss_latency::total 47996.536377                       # average ReadReq miss latency
system.cpu.dcache.ReadReq_mshr_hits::.cpu.data        22439                       # number of ReadReq MSHR hits
system.cpu.dcache.ReadReq_mshr_hits::total        22439                       # number of ReadReq MSHR hits
system.cpu.dcache.ReadReq_mshr_misses::.cpu.data        10590                       # number of ReadReq MSHR misses
system.cpu.dcache.ReadReq_mshr_misses::total        10590                       # number of ReadReq MSHR misses
system.cpu.dcache.ReadReq_mshr_miss_latency::.cpu.data    478673600                       # number of ReadReq MSHR miss cycles
system.cpu.dcache.ReadReq_mshr_miss_latency::total    478673600                       # number of ReadReq MSHR miss cycles
system.cpu.dcache.ReadReq_mshr_miss_rate::.cpu.data     0.014256                       # mshr miss rate for ReadReq accesses
system.cpu.dcache.ReadReq_mshr_miss_rate::total     0.014256                       # mshr miss rate for ReadReq accesses
system.cpu.dcache.ReadReq_avg_mshr_miss_latency::.cpu.data 45200.528801                       # average ReadReq mshr miss latency
system.cpu.dcache.ReadReq_avg_mshr_miss_latency::total 45200.528801                       # average ReadReq mshr miss latency
system.cpu.dcache.WriteReq_hits::.cpu.data       272371                       # number of WriteReq hits
system.cpu.dcache.WriteReq_hits::total         272371                       # number of WriteReq hits
system.cpu.dcache.WriteReq_misses::.cpu.data         2110                       # number of WriteReq misses
system.cpu.dcache.WriteReq_misses::total         2110                       # number of WriteReq misses
system.cpu.dcache.WriteReq_miss_latency::.cpu.data    104631600                       # number of WriteReq miss cycles
system.cpu.dcache.WriteReq_miss_latency::total    104631600                       # number of WriteReq miss cycles
system.cpu.dcache.WriteReq_accesses::.cpu.data       274481                       # number of WriteReq accesses(hits+misses)
system.cpu.dcache.WriteReq_accesses::total       274481                       # number of WriteReq accesses(hits+misses)
system.cpu.dcache.WriteReq_miss_rate::.cpu.data     0.007687                       # miss rate for WriteReq accesses
system.cpu.dcache.WriteReq_miss_rate::total     0.007687                       # miss rate for WriteReq accesses
system.cpu.dcache.WriteReq_avg_miss_latency::.cpu.data 49588.436019                       # average WriteReq miss latency
system.cpu.dcache.WriteReq_avg_miss_latency::total 49588.436019                       # average WriteReq miss latency
system.cpu.dcache.WriteReq_mshr_hits::.cpu.data           33                       # number of WriteReq MSHR hits
system.cpu.dcache.WriteReq_mshr_hits::total           33                       # number of WriteReq MSHR hits
system.cpu.dcache.WriteReq_mshr_misses::.cpu.data         2077                       # number of WriteReq MSHR misses
system.cpu.dcache.WriteReq_mshr_misses::total         2077                       # number of WriteReq MSHR misses
system.cpu.dcache.WriteReq_mshr_miss_latency::.cpu.data    101582800                       # number of WriteReq MSHR miss cycles
system.cpu.dcache.WriteReq_mshr_miss_latency::total    101582800                       # number of WriteReq MSHR miss cycles
[...]
system.l2cache.demand_mshr_misses::.cpu.data          133                       # number of demand (read+write) MSHR misses
system.l2cache.demand_mshr_misses::.cpu.dcache.prefetcher           39                       # number of demand (read+write) MSHR misses
system.l2cache.demand_mshr_misses::total          376                       # number of demand (read+write) MSHR misses
system.l2cache.overall_mshr_misses::.cpu.inst          204                       # number of overall MSHR misses
system.l2cache.overall_mshr_misses::.cpu.data          133                       # number of overall MSHR misses
system.l2cache.overall_mshr_misses::.cpu.dcache.prefetcher           39                       # number of overall MSHR misses
system.l2cache.overall_mshr_misses::total          376                       # number of overall MSHR misses
system.l2cache.demand_mshr_miss_latency::.cpu.inst     12317600                       # number of demand (read+write) MSHR miss cycles
system.l2cache.demand_mshr_miss_latency::.cpu.data      7961200                       # number of demand (read+write) MSHR miss cycles
system.l2cache.demand_mshr_miss_latency::.cpu.dcache.prefetcher      2475562                       # number of demand (read+write) MSHR miss cycles
system.l2cache.demand_mshr_miss_latency::total     22754362                       # number of demand (read+write) MSHR miss cycles
system.l2cache.overall_mshr_miss_latency::.cpu.inst     12317600                       # number of overall MSHR miss cycles
system.l2cache.overall_mshr_miss_latency::.cpu.data      7961200                       # number of overall MSHR miss cycles
system.l2cache.overall_mshr_miss_latency::.cpu.dcache.prefetcher      2475562                       # number of overall MSHR miss cycles
system.l2cache.overall_mshr_miss_latency::total     22754362                       # number of overall MSHR miss cycles
system.l2cache.demand_mshr_miss_rate::.cpu.inst     0.459459                       # mshr miss rate for demand accesses
system.l2cache.demand_mshr_miss_rate::.cpu.data     0.392330                       # mshr miss rate for demand accesses
system.l2cache.demand_mshr_miss_rate::.cpu.dcache.prefetcher     0.684211                       # mshr miss rate for demand accesses
system.l2cache.demand_mshr_miss_rate::total     0.447619                       # mshr miss rate for demand accesses
system.l2cache.overall_mshr_miss_rate::.cpu.inst     0.459459                       # mshr miss rate for overall accesses
system.l2cache.overall_mshr_miss_rate::.cpu.data     0.392330                       # mshr miss rate for overall accesses
system.l2cache.overall_mshr_miss_rate::.cpu.dcache.prefetcher     0.684211                       # mshr miss rate for overall accesses
system.l2cache.overall_mshr_miss_rate::total     0.447619                       # mshr miss rate for overall accesses
system.l2cache.demand_avg_mshr_miss_latency::.cpu.inst 60380.392157                       # average overall mshr miss latency
system.l2cache.demand_avg_mshr_miss_latency::.cpu.data 59858.646617                       # average overall mshr miss latency
system.l2cache.demand_avg_mshr_miss_latency::.cpu.dcache.prefetcher 63475.948718                       # average overall mshr miss latency
system.l2cache.demand_avg_mshr_miss_latency::total 60516.920213                       # average overall mshr miss latency
system.l2cache.overall_avg_mshr_miss_latency::.cpu.inst 60380.392157                       # average overall mshr miss latency
system.l2cache.overall_avg_mshr_miss_latency::.cpu.data 59858.646617                       # average overall mshr miss latency
system.l2cache.overall_avg_mshr_miss_latency::.cpu.dcache.prefetcher 63475.948718                       # average overall mshr miss latency
system.l2cache.overall_avg_mshr_miss_latency::total 60516.920213                       # average overall mshr miss latency
system.l2cache.replacements                       378                       # number of replacements
system.l2cache.WritebackDirty_hits::.writebacks          385                       # number of WritebackDirty hits
system.l2cache.WritebackDirty_hits::total          385                       # number of WritebackDirty hits
system.l2cache.WritebackDirty_accesses::.writebacks          385                       # number of WritebackDirty accesses(hits+misses)
system.l2cache.WritebackDirty_accesses::total          385                       # number of WritebackDirty accesses(hits+misses)
system.l2cache.CleanEvict_mshr_misses::.writebacks           70                       # number of CleanEvict MSHR misses
system.l2cache.CleanEvict_mshr_misses::total           70                       # number of CleanEvict MSHR misses
system.l2cache.CleanEvict_mshr_miss_rate::.writebacks          inf                       # mshr miss rate for CleanEvict accesses
system.l2cache.CleanEvict_mshr_miss_rate::total          inf                       # mshr miss rate for CleanEvict accesses
system.l2cache.ReadExReq_hits::.cpu.data           22                       # number of ReadExReq hits
system.l2cache.ReadExReq_hits::total               22                       # number of ReadExReq hits
system.l2cache.ReadExReq_misses::.cpu.data            6                       # number of ReadExReq misses
system.l2cache.ReadExReq_misses::total              6                       # number of ReadExReq misses
system.l2cache.ReadExReq_miss_latency::.cpu.data       456400                       # number of ReadExReq miss cycles
system.l2cache.ReadExReq_miss_latency::total       456400                       # number of ReadExReq miss cycles
system.l2cache.ReadExReq_accesses::.cpu.data           28                       # number of ReadExReq accesses(hits+misses)
system.l2cache.ReadExReq_accesses::total           28                       # number of ReadExReq accesses(hits+misses)
system.l2cache.ReadExReq_miss_rate::.cpu.data     0.214286                       # miss rate for ReadExReq accesses
system.l2cache.ReadExReq_miss_rate::total     0.214286                       # miss rate for ReadExReq accesses
system.l2cache.ReadExReq_avg_miss_latency::.cpu.data 76066.666667                       # average ReadExReq miss latency
system.l2cache.ReadExReq_avg_miss_latency::total 76066.666667                       # average ReadExReq miss latency
system.l2cache.ReadExReq_mshr_misses::.cpu.data            6                       # number of ReadExReq MSHR misses
system.l2cache.ReadExReq_mshr_misses::total            6                       # number of ReadExReq MSHR misses
system.l2cache.ReadExReq_mshr_miss_latency::.cpu.data       408400                       # number of ReadExReq MSHR miss cycles
system.l2cache.ReadExReq_mshr_miss_latency::total       408400                       # number of ReadExReq MSHR miss cycles
system.l2cache.ReadExReq_mshr_miss_rate::.cpu.data     0.214286                       # mshr miss rate for ReadExReq accesses
system.l2cache.ReadExReq_mshr_miss_rate::total     0.214286                       # mshr miss rate for ReadExReq accesses
system.l2cache.ReadExReq_avg_mshr_miss_latency::.cpu.data 68066.666667                       # average ReadExReq mshr miss latency
system.l2cache.ReadExReq_avg_mshr_miss_latency::total 68066.666667                       # average ReadExReq mshr miss latency
system.l2cache.ReadSharedReq_hits::.cpu.inst          240                       # number of ReadSharedReq hits
system.l2cache.ReadSharedReq_hits::.cpu.data          184                       # number of ReadSharedReq hits
system.l2cache.ReadSharedReq_hits::.cpu.dcache.prefetcher           18                       # number of ReadSharedReq hits
system.l2cache.ReadSharedReq_hits::total          442                       # number of ReadSharedReq hits
system.l2cache.ReadSharedReq_misses::.cpu.inst          204                       # number of ReadSharedReq misses
system.l2cache.ReadSharedReq_misses::.cpu.data          127                       # number of ReadSharedReq misses
system.l2cache.ReadSharedReq_misses::.cpu.dcache.prefetcher           39                       # number of ReadSharedReq misses
system.l2cache.ReadSharedReq_misses::total          370                       # number of ReadSharedReq misses
system.l2cache.ReadSharedReq_miss_latency::.cpu.inst     13965600                       # number of ReadSharedReq miss cycles
system.l2cache.ReadSharedReq_miss_latency::.cpu.data      8568800                       # number of ReadSharedReq miss cycles
system.l2cache.ReadSharedReq_miss_latency::.cpu.dcache.prefetcher      2787562                       # number of ReadSharedReq miss cycles
system.l2cache.ReadSharedReq_miss_latency::total     25321962                       # number of ReadSharedReq miss cycles
system.l2cache.ReadSharedReq_accesses::.cpu.inst          444                       # number of ReadSharedReq accesses(hits+misses)
system.l2cache.ReadSharedReq_accesses::.cpu.data          311                       # number of ReadSharedReq accesses(hits+misses)
system.l2cache.ReadSharedReq_accesses::.cpu.dcache.prefetcher           57                       # number of ReadSharedReq accesses(hits+misses)
system.l2cache.ReadSharedReq_accesses::total          812                       # number of ReadSharedReq accesses(hits+misses)
system.l2cache.ReadSharedReq_miss_rate::.cpu.inst     0.459459                       # miss rate for ReadSharedReq accesses
system.l2cache.ReadSharedReq_miss_rate::.cpu.data     0.408360                       # miss rate for ReadSharedReq accesses
system.l2cache.ReadSharedReq_miss_rate::.cpu.dcache.prefetcher     0.684211                       # miss rate for ReadSharedReq accesses
system.l2cache.ReadSharedReq_miss_rate::total     0.455665                       # miss rate for ReadSharedReq accesses
system.l2cache.ReadSharedReq_avg_miss_latency::.cpu.inst 68458.823529                       # average ReadSharedReq miss latency
system.l2cache.ReadSharedReq_avg_miss_latency::.cpu.data 67470.866142                       # average ReadSharedReq miss latency
system.l2cache.ReadSharedReq_avg_miss_latency::.cpu.dcache.prefetcher 71475.948718                       # average ReadSharedReq miss latency
system.l2cache.ReadSharedReq_avg_miss_latency::total 68437.735135                       # average ReadSharedReq miss latency
system.l2cache.ReadSharedReq_mshr_misses::.cpu.inst          204                       # number of ReadSharedReq MSHR misses
system.l2cache.ReadSharedReq_mshr_misses::.cpu.data          127                       # number of ReadSharedReq MSHR misses
system.l2cache.ReadSharedReq_mshr_misses::.cpu.dcache.prefetcher           39                       # number of ReadSharedReq MSHR misses
system.l2cache.ReadSharedReq_mshr_misses::total          370                       # number of ReadSharedReq MSHR misses
system.l2cache.ReadSharedReq_mshr_miss_latency::.cpu.inst     12317600                       # number of ReadSharedReq MSHR miss cycles
system.l2cache.ReadSharedReq_mshr_miss_latency::.cpu.data      7552800                       # number of ReadSharedReq MSHR miss cycles
system.l2cache.ReadSharedReq_mshr_miss_latency::.cpu.dcache.prefetcher      2475562                       # number of ReadSharedReq MSHR miss cycles
system.l2cache.ReadSharedReq_mshr_miss_latency::total     22345962                       # number of ReadSharedReq MSHR miss cycles
system.l2cache.ReadSharedReq_mshr_miss_rate::.cpu.inst     0.459459                       # mshr miss rate for ReadSharedReq accesses
system.l2cache.ReadSharedReq_mshr_miss_rate::.cpu.data     0.408360                       # mshr miss rate for ReadSharedReq accesses
system.l2cache.ReadSharedReq_mshr_miss_rate::.cpu.dcache.prefetcher     0.684211                       # mshr miss rate for ReadSharedReq accesses
system.l2cache.ReadSharedReq_mshr_miss_rate::total     0.455665                       # mshr miss rate for ReadSharedReq accesses
system.l2cache.ReadSharedReq_avg_mshr_miss_latency::.cpu.inst 60380.392157                       # average ReadSharedReq mshr miss latency
system.l2cache.ReadSharedReq_avg_mshr_miss_latency::.cpu.data 59470.866142                       # average ReadSharedReq mshr miss latency
system.l2cache.ReadSharedReq_avg_mshr_miss_latency::.cpu.dcache.prefetcher 63475.948718                       # average ReadSharedReq mshr miss latency
system.l2cache.ReadSharedReq_avg_mshr_miss_latency::total 60394.491892                       # average ReadSharedReq mshr miss latency
system.l2cache.prefetcher.pwrStateResidencyTicks::UNDEFINED    218902400                       # Cumulative time (in ticks) in various power states
system.l2cache.tags.pwrStateResidencyTicks::UNDEFINED    218902400                       # Cumulative time (in ticks) in various power states
system.l2cache.tags.tagsinuse                    4096                       # Cycle average of tags in use
system.l2cache.tags.total_refs                  30375                       # Total number of references to valid blocks.
system.l2cache.tags.sampled_refs                 4474                       # Sample count of references to valid blocks.
system.l2cache.tags.avg_refs                 6.789227                       # Average number of references to valid blocks.
system.l2cache.tags.warmup_cycle                    0                       # Cycle when the warmup percentage was hit.
system.l2cache.tags.occ_blocks::.writebacks    75.756955                       # Average occupied blocks per requestor
system.l2cache.tags.occ_blocks::.cpu.inst   535.416078                       # Average occupied blocks per requestor
system.l2cache.tags.occ_blocks::.cpu.data  2787.263654                       # Average occupied blocks per requestor
system.l2cache.tags.occ_blocks::.cpu.dcache.prefetcher   426.788558                       # Average occupied blocks per requestor
system.l2cache.tags.occ_blocks::.l2cache.prefetcher   270.774756                       # Average occupied blocks per requestor
system.l2cache.tags.occ_percent::.writebacks     0.018495                       # Average percentage of cache occupancy
system.l2cache.tags.occ_percent::.cpu.inst     0.130717                       # Average percentage of cache occupancy
system.l2cache.tags.occ_percent::.cpu.data     0.680484                       # Average percentage of cache occupancy
system.l2cache.tags.occ_percent::.cpu.dcache.prefetcher     0.104196                       # Average percentage of cache occupancy
system.l2cache.tags.occ_percent::.l2cache.prefetcher     0.066107                       # Average percentage of cache occupancy
system.l2cache.tags.occ_percent::total              1                       # Average percentage of cache occupancy
system.l2cache.tags.occ_task_id_blocks::1022          676                       # Occupied blocks per task id
system.l2cache.tags.occ_task_id_blocks::1024         3420                       # Occupied blocks per task id
system.l2cache.tags.age_task_id_blocks_1022::0           17                       # Occupied blocks per task id
system.l2cache.tags.age_task_id_blocks_1022::1           15                       # Occupied blocks per task id
system.l2cache.tags.age_task_id_blocks_1022::2           12                       # Occupied blocks per task id
system.l2cache.tags.age_task_id_blocks_1022::3          632                       # Occupied blocks per task id
system.l2cache.tags.age_task_id_blocks_1024::0          192                       # Occupied blocks per task id
system.l2cache.tags.age_task_id_blocks_1024::1           64                       # Occupied blocks per task id
system.l2cache.tags.age_task_id_blocks_1024::2          100                       # Occupied blocks per task id
system.l2cache.tags.age_task_id_blocks_1024::3         3064                       # Occupied blocks per task id
system.l2cache.tags.occ_task_id_percent::1022     0.165039                       # Percentage of cache occupancy per task id
system.l2cache.tags.occ_task_id_percent::1024     0.834961                       # Percentage of cache occupancy per task id
system.l2cache.tags.tag_accesses                13826                       # Number of tag accesses
system.l2cache.tags.data_accesses               13826                       # Number of data accesses
system.mem_ctrl.pwrStateResidencyTicks::UNDEFINED    218902400                       # Cumulative time (in ticks) in various power states
system.mem_ctrl.bytes_read::.cpu.inst           13184                       # Number of bytes read from this memory
system.mem_ctrl.bytes_read::.cpu.data            8512                       # Number of bytes read from this memory
system.mem_ctrl.bytes_read::.cpu.dcache.prefetcher         2496                       # Number of bytes read from this memory
system.mem_ctrl.bytes_read::total               24192                       # Number of bytes read from this memory
system.mem_ctrl.bytes_inst_read::.cpu.inst        13184                       # Number of instructions bytes read from this memory
system.mem_ctrl.bytes_inst_read::total          13184                       # Number of instructions bytes read from this memory
system.mem_ctrl.bytes_written::.writebacks         4352                       # Number of bytes written to this memory
system.mem_ctrl.bytes_written::total             4352                       # Number of bytes written to this memory
system.mem_ctrl.num_reads::.cpu.inst              206                       # Number of read requests responded to by this memory
system.mem_ctrl.num_reads::.cpu.data              133                       # Number of read requests responded to by this memory
system.mem_ctrl.num_reads::.cpu.dcache.prefetcher           39                       # Number of read requests responded to by this memory
system.mem_ctrl.num_reads::total                  378                       # Number of read requests responded to by this memory
system.mem_ctrl.num_writes::.writebacks            68                       # Number of write requests responded to by this memory
system.mem_ctrl.num_writes::total                  68                       # Number of write requests responded to by this memory
system.mem_ctrl.bw_read::.cpu.inst           60227754                       # Total read bandwidth from this memory (bytes/s)
system.mem_ctrl.bw_read::.cpu.data           38884909                       # Total read bandwidth from this memory (bytes/s)
system.mem_ctrl.bw_read::.cpu.dcache.prefetcher     11402342                       # Total read bandwidth from this memory (bytes/s)
system.mem_ctrl.bw_read::total              110515006                       # Total read bandwidth from this memory (bytes/s)
system.mem_ctrl.bw_inst_read::.cpu.inst      60227754                       # Instruction read bandwidth from this memory (bytes/s)
system.mem_ctrl.bw_inst_read::total          60227754                       # Instruction read bandwidth from this memory (bytes/s)
system.mem_ctrl.bw_write::.writebacks        19881006                       # Write bandwidth from this memory (bytes/s)
system.mem_ctrl.bw_write::total              19881006                       # Write bandwidth from this memory (bytes/s)
system.mem_ctrl.bw_total::.writebacks        19881006                       # Total bandwidth to/from this memory (bytes/s)
system.mem_ctrl.bw_total::.cpu.inst          60227754                       # Total bandwidth to/from this memory (bytes/s)
system.mem_ctrl.bw_total::.cpu.data          38884909                       # Total bandwidth to/from this memory (bytes/s)
system.mem_ctrl.bw_total::.cpu.dcache.prefetcher     11402342                       # Total bandwidth to/from this memory (bytes/s)
system.mem_ctrl.bw_total::total             130396012                       # Total bandwidth to/from this memory (bytes/s)

---------- End Simulation Statistics   ----------
