
---------- Begin Simulation Statistics ----------
final_tick                                 1080808000                       # Number of ticks from beginning of simulation (restored from checkpoints and never reset)
host_inst_rate                                 178442                       # Simulator instruction rate (inst/s)
host_mem_usage                                4402744                       # Number of bytes of host memory used
host_op_rate                                   309749                       # Simulator op (including micro ops) rate (op/s)
host_seconds                                    11.66                       # Real time elapsed on the host
host_tick_rate                               92724493                       # Simulator tick rate (ticks/s)
sim_freq                                 1000000000000                       # Frequency of simulated ticks
sim_insts                                     2079930                       # Number of instructions simulated
sim_ops                                       3610464                       # Number of ops (including micro ops) simulated
sim_seconds                                  0.001081                       # Number of seconds simulated
sim_ticks                                  1080808000                       # Number of ticks simulated
system.cpu.branchPred.BTBCorrect                    0                       # Number of correct BTB predictions (this stat may not work properly.
system.cpu.branchPred.BTBHitPct              0.000000                       # BTB Hit Percentage
system.cpu.branchPred.BTBHits                       0                       # Number of BTB hits
system.cpu.branchPred.BTBLookups               426130                       # Number of BTB lookups
system.cpu.branchPred.RASInCorrect                  5                       # Number of incorrect RAS predictions.
system.cpu.branchPred.condIncorrect             22777                       # Number of conditional branches incorrect
system.cpu.branchPred.condPredicted            454667                       # Number of conditional branches predicted
system.cpu.branchPred.indirectHits             237568                       # Number of indirect target hits.
system.cpu.branchPred.indirectLookups          426130                       # Number of indirect predictor lookups.
system.cpu.branchPred.indirectMisses           188562                       # Number of indirect misses.
system.cpu.branchPred.lookups                  481731                       # Number of BP lookups
system.cpu.branchPred.usedRAS                   11833                       # Number of times the RAS was used to get a target.
system.cpu.branchPredindirectMispredicted        11413                       # Number of mispredicted indirect branches.
system.cpu.cc_regfile_reads                   2358649                       # number of cc regfile reads
system.cpu.cc_regfile_writes                  1949338                       # number of cc regfile writes
system.cpu.commit.amos                              0                       # Number of atomic instructions committed
system.cpu.commit.branchMispredicts             22841                       # The number of times a branch was mispredicted
system.cpu.commit.branches                     346347                       # Number of branches committed
system.cpu.commit.bw_lim_events                597994                       # number cycles where commit BW limit reached
system.cpu.commit.commitNonSpecStalls             732                       # The number of times commit has been forced to stall to communicate backwards
system.cpu.commit.commitSquashedInsts          839834                       # The number of squashed insts skipped by commit
system.cpu.commit.committedInsts              2079930                       # Number of instructions committed
system.cpu.commit.committedOps                3610464                       # Number of ops (including micro ops) committed
system.cpu.commit.committed_per_cycle::samples      2324594                       # Number of insts commited each cycle
system.cpu.commit.committed_per_cycle::mean     1.553159                       # Number of insts commited each cycle
system.cpu.commit.committed_per_cycle::stdev     1.723098                       # Number of insts commited each cycle
system.cpu.commit.committed_per_cycle::underflows            0      0.00%      0.00% # Number of insts commited each cycle
system.cpu.commit.committed_per_cycle::0      1139635     49.03%     49.03% # Number of insts commited each cycle
system.cpu.commit.committed_per_cycle::1       185473      7.98%     57.00% # Number of insts commited each cycle
system.cpu.commit.committed_per_cycle::2       171461      7.38%     64.38% # Number of insts commited each cycle
system.cpu.commit.committed_per_cycle::3       230031      9.90%     74.28% # Number of insts commited each cycle
system.cpu.commit.committed_per_cycle::4       597994     25.72%    100.00% # Number of insts commited each cycle
system.cpu.commit.committed_per_cycle::overflows            0      0.00%    100.00% # Number of insts commited each cycle
system.cpu.commit.committed_per_cycle::min_value            0                       # Number of insts commited each cycle
system.cpu.commit.committed_per_cycle::max_value            4                       # Number of insts commited each cycle
system.cpu.commit.committed_per_cycle::total      2324594                       # Number of insts commited each cycle
system.cpu.commit.fp_insts                      73256                       # Number of committed floating point instructions.
system.cpu.commit.function_calls                10076                       # Number of function calls committed.
system.cpu.commit.int_insts                   3556267                       # Number of committed integer instructions.
system.cpu.commit.loads                        491524                       # Number of loads committed
system.cpu.commit.membars                           1                       # Number of memory barriers committed
system.cpu.commit.op_class_0::No_OpClass        19888      0.55%      0.55% # Class of committed instruction
system.cpu.commit.op_class_0::IntAlu          2849021     78.91%     79.46% # Class of committed instruction
system.cpu.commit.op_class_0::IntMult            1275      0.04%     79.50% # Class of committed instruction
system.cpu.commit.op_class_0::IntDiv            35767      0.99%     80.49% # Class of committed instruction
system.cpu.commit.op_class_0::FloatAdd           2852      0.08%     80.57% # Class of committed instruction
system.cpu.commit.op_class_0::FloatCmp              0      0.00%     80.57% # Class of committed instruction
system.cpu.commit.op_class_0::FloatCvt           1200      0.03%     80.60% # Class of committed instruction
system.cpu.commit.op_class_0::FloatMult             0      0.00%     80.60% # Class of committed instruction
system.cpu.commit.op_class_0::FloatMultAcc            0      0.00%     80.60% # Class of committed instruction
system.cpu.commit.op_class_0::FloatDiv              0      0.00%     80.60% # Class of committed instruction
system.cpu.commit.op_class_0::FloatMisc             0      0.00%     80.60% # Class of committed instruction
system.cpu.commit.op_class_0::FloatSqrt             0      0.00%     80.60% # Class of committed instruction
system.cpu.commit.op_class_0::SimdAdd            6214      0.17%     80.77% # Class of committed instruction
system.cpu.commit.op_class_0::SimdAddAcc            0      0.00%     80.77% # Class of committed instruction
system.cpu.commit.op_class_0::SimdAlu           11190      0.31%     81.08% # Class of committed instruction
system.cpu.commit.op_class_0::SimdCmp               0      0.00%     81.08% # Class of committed instruction
system.cpu.commit.op_class_0::SimdCvt           12110      0.34%     81.42% # Class of committed instruction
system.cpu.commit.op_class_0::SimdMisc           6509      0.18%     81.60% # Class of committed instruction
system.cpu.commit.op_class_0::SimdMult              0      0.00%     81.60% # Class of committed instruction
system.cpu.commit.op_class_0::SimdMultAcc            0      0.00%     81.60% # Class of committed instruction
system.cpu.commit.op_class_0::SimdShift          1139      0.03%     81.63% # Class of committed instruction
system.cpu.commit.op_class_0::SimdShiftAcc            0      0.00%     81.63% # Class of committed instruction
system.cpu.commit.op_class_0::SimdDiv               0      0.00%     81.63% # Class of committed instruction
system.cpu.commit.op_class_0::SimdSqrt              0      0.00%     81.63% # Class of committed instruction
system.cpu.commit.op_class_0::SimdFloatAdd            0      0.00%     81.63% # Class of committed instruction
system.cpu.commit.op_class_0::SimdFloatAlu            0      0.00%     81.63% # Class of committed instruction
system.cpu.commit.op_class_0::SimdFloatCmp            0      0.00%     81.63% # Class of committed instruction
system.cpu.commit.op_class_0::SimdFloatCvt            0      0.00%     81.63% # Class of committed instruction
system.cpu.commit.op_class_0::SimdFloatDiv            0      0.00%     81.63% # Class of committed instruction
system.cpu.commit.op_class_0::SimdFloatMisc            0      0.00%     81.63% # Class of committed instruction
system.cpu.commit.op_class_0::SimdFloatMult            0      0.00%     81.63% # Class of committed instruction
system.cpu.commit.op_class_0::SimdFloatMultAcc            0      0.00%     81.63% # Class of committed instruction
system.cpu.commit.op_class_0::SimdFloatSqrt            0      0.00%     81.63% # Class of committed instruction
system.cpu.commit.op_class_0::SimdReduceAdd            0      0.00%     81.63% # Class of committed instruction
system.cpu.commit.op_class_0::SimdReduceAlu            0      0.00%     81.63% # Class of committed instruction
system.cpu.commit.op_class_0::SimdReduceCmp            0      0.00%     81.63% # Class of committed instruction
system.cpu.commit.op_class_0::SimdFloatReduceAdd            0      0.00%     81.63% # Class of committed instruction
system.cpu.commit.op_class_0::SimdFloatReduceCmp            0      0.00%     81.63% # Class of committed instruction
system.cpu.commit.op_class_0::SimdAes               0      0.00%     81.63% # Class of committed instruction
system.cpu.commit.op_class_0::SimdAesMix            0      0.00%     81.63% # Class of committed instruction
system.cpu.commit.op_class_0::SimdSha1Hash            0      0.00%     81.63% # Class of committed instruction
system.cpu.commit.op_class_0::SimdSha1Hash2            0      0.00%     81.63% # Class of committed instruction
system.cpu.commit.op_class_0::SimdSha256Hash            0      0.00%     81.63% # Class of committed instruction
system.cpu.commit.op_class_0::SimdSha256Hash2            0      0.00%     81.63% # Class of committed instruction
system.cpu.commit.op_class_0::SimdShaSigma2            0      0.00%     81.63% # Class of committed instruction
system.cpu.commit.op_class_0::SimdShaSigma3            0      0.00%     81.63% # Class of committed instruction
system.cpu.commit.op_class_0::SimdPredAlu            0      0.00%     81.63% # Class of committed instruction
system.cpu.commit.op_class_0::MemRead          472404     13.08%     94.71% # Class of committed instruction
system.cpu.commit.op_class_0::MemWrite         159706      4.42%     99.14% # Class of committed instruction
system.cpu.commit.op_class_0::FloatMemRead        19120      0.53%     99.67% # Class of committed instruction
system.cpu.commit.op_class_0::FloatMemWrite        12069      0.33%    100.00% # Class of committed instruction
system.cpu.commit.op_class_0::IprAccess             0      0.00%    100.00% # Class of committed instruction
system.cpu.commit.op_class_0::InstPrefetch            0      0.00%    100.00% # Class of committed instruction
system.cpu.commit.op_class_0::total           3610464                       # Class of committed instruction
system.cpu.commit.refs                         663299                       # Number of memory references committed
system.cpu.commit.swp_count                         0                       # Number of s/w prefetches committed
system.cpu.commit.vec_insts                         0                       # Number of committed Vector instructions.
system.cpu.committedInsts                     2079930                       # Number of Instructions Simulated
system.cpu.committedOps                       3610464                       # Number of Ops (including micro ops) Simulated
system.cpu.cpi                               1.299092                       # CPI: Cycles Per Instruction
system.cpu.cpi_total                         1.299092                       # CPI: Total CPI of All Threads
system.cpu.dcache.prefetcher.num_hwpf_issued         8439                       # number of hwpf issued
system.cpu.dcache.prefetcher.pfBufferHit        34582                       # number of redundant prefetches already in prefetch queue
system.cpu.dcache.prefetcher.pfIdentified        50786                       # number of prefetch candidates identified
system.cpu.dcache.prefetcher.pfInCache              0                       # number of redundant prefetches already in cache/mshr dropped
system.cpu.dcache.prefetcher.pfRemovedFull            0                       # number of prefetches dropped due to prefetch queue size
system.cpu.dcache.prefetcher.pfSpanPage          4742                       # number of prefetches that crossed the page
system.cpu.decode.BlockedCycles               1017760                       # Number of cycles decode is blocked
system.cpu.decode.DecodedInsts                4653898                       # Number of instructions handled by decode
system.cpu.decode.IdleCycles                   292797                       # Number of cycles decode is idle
system.cpu.decode.RunCycles                   1130441                       # Number of cycles decode is running
system.cpu.decode.SquashCycles                  22903                       # Number of cycles decode is squashing
system.cpu.decode.UnblockCycles                 89572                       # Number of cycles decode is unblocking
system.cpu.dtb.rdAccesses                      569554                       # TLB accesses on read requests
system.cpu.dtb.rdMisses                          2121                       # TLB misses on read requests
system.cpu.dtb.wrAccesses                      189345                       # TLB accesses on write requests
system.cpu.dtb.wrMisses                           147                       # TLB misses on write requests
system.cpu.fetch.Branches                      481731                       # Number of branches that fetch encountered
system.cpu.fetch.CacheLines                    236865                       # Number of cache lines fetched
system.cpu.fetch.Cycles                       2207379                       # Number of cycles fetch has run and was not squashing or blocked
system.cpu.fetch.IcacheSquashes                  4352                       # Number of outstanding Icache misses that were squashed
system.cpu.fetch.Insts                        2810731                       # Number of instructions fetch has processed
system.cpu.fetch.MiscStallCycles                   90                       # Number of cycles fetch has spent waiting on interrupts, or bad addresses, or out of MSHRs
system.cpu.fetch.PendingQuiesceStallCycles            6                       # Number of stall cycles due to pending quiesce instructions
system.cpu.fetch.PendingTrapStallCycles           543                       # Number of stall cycles due to pending traps
system.cpu.fetch.SquashCycles                   45806                       # Number of cycles fetch has spent squashing
system.cpu.fetch.branchRate                  0.178285                       # Number of branch fetches per cycle
system.cpu.fetch.icacheStallCycles             322552                       # Number of cycles fetch is stalled on an Icache miss
system.cpu.fetch.predictedBranches             249401                       # Number of branches that fetch has predicted taken
system.cpu.fetch.rate                        1.040233                       # Number of inst fetches per cycle
system.cpu.fetch.rateDist::samples            2553473                       # Number of instructions fetched each cycle (Total)
system.cpu.fetch.rateDist::mean              1.924777                       # Number of instructions fetched each cycle (Total)
system.cpu.fetch.rateDist::stdev             1.929951                       # Number of instructions fetched each cycle (Total)
system.cpu.fetch.rateDist::underflows               0      0.00%      0.00% # Number of instructions fetched each cycle (Total)
system.cpu.fetch.rateDist::0                  1220392     47.79%     47.79% # Number of instructions fetched each cycle (Total)
system.cpu.fetch.rateDist::1                    74427      2.91%     50.71% # Number of instructions fetched each cycle (Total)
system.cpu.fetch.rateDist::2                    58660      2.30%     53.01% # Number of instructions fetched each cycle (Total)
system.cpu.fetch.rateDist::3                    76858      3.01%     56.02% # Number of instructions fetched each cycle (Total)
system.cpu.fetch.rateDist::4                  1123136     43.98%    100.00% # Number of instructions fetched each cycle (Total)
system.cpu.fetch.rateDist::overflows                0      0.00%    100.00% # Number of instructions fetched each cycle (Total)
system.cpu.fetch.rateDist::min_value                0                       # Number of instructions fetched each cycle (Total)
system.cpu.fetch.rateDist::max_value                4                       # Number of instructions fetched each cycle (Total)
system.cpu.fetch.rateDist::total              2553473                       # Number of instructions fetched each cycle (Total)
system.cpu.fp_regfile_reads                    118097                       # number of floating regfile reads
system.cpu.fp_regfile_writes                    65036                       # number of floating regfile writes
system.cpu.fuPool.fu_ticks_busy::IntALU(0)    216960000                       # Total ticks fu was busy
system.cpu.fuPool.fu_ticks_busy::IntALU(1)    216960000                       # Total ticks fu was busy
system.cpu.fuPool.fu_ticks_busy::IntALU(2)    216960000                       # Total ticks fu was busy
system.cpu.fuPool.fu_ticks_busy::IntALU(3)    216959600                       # Total ticks fu was busy
system.cpu.fuPool.fu_ticks_busy::IntALU(4)    216959600                       # Total ticks fu was busy
system.cpu.fuPool.fu_ticks_busy::IntALU(5)    216959600                       # Total ticks fu was busy
system.cpu.fuPool.fu_ticks_busy::IntMultDiv(0)      8087200                       # Total ticks fu was busy
system.cpu.fuPool.fu_ticks_busy::IntMultDiv(1)      8086800                       # Total ticks fu was busy
system.cpu.fuPool.fu_ticks_busy::FP_ALU(0)       558400                       # Total ticks fu was busy
system.cpu.fuPool.fu_ticks_busy::FP_ALU(1)       558400                       # Total ticks fu was busy
system.cpu.fuPool.fu_ticks_busy::FP_ALU(2)       558400                       # Total ticks fu was busy
system.cpu.fuPool.fu_ticks_busy::FP_ALU(3)       558000                       # Total ticks fu was busy
system.cpu.fuPool.fu_ticks_busy::FP_MultDiv(0)            0                       # Total ticks fu was busy
system.cpu.fuPool.fu_ticks_busy::FP_MultDiv(1)            0                       # Total ticks fu was busy
system.cpu.fuPool.fu_ticks_busy::SIMD_Unit(0)      4377600                       # Total ticks fu was busy
system.cpu.fuPool.fu_ticks_busy::SIMD_Unit(1)      4527200                       # Total ticks fu was busy
system.cpu.fuPool.fu_ticks_busy::SIMD_Unit(2)      4468800                       # Total ticks fu was busy
system.cpu.fuPool.fu_ticks_busy::SIMD_Unit(3)      4321200                       # Total ticks fu was busy
system.cpu.fuPool.fu_ticks_busy::PredALU(0)            0                       # Total ticks fu was busy
system.cpu.fuPool.fu_ticks_busy::RdWrPort(0)     77220400                       # Total ticks fu was busy
system.cpu.fuPool.fu_ticks_busy::RdWrPort(1)     77253600                       # Total ticks fu was busy
system.cpu.fuPool.fu_ticks_busy::RdWrPort(2)     77291600                       # Total ticks fu was busy
system.cpu.fuPool.fu_ticks_busy::RdWrPort(3)     77288800                       # Total ticks fu was busy
system.cpu.fuPool.fu_ticks_busy::IprPort(0)            0                       # Total ticks fu was busy
system.cpu.fuPool.fu_ticks_busy::total     1646915200                       # Total ticks fu was busy
system.cpu.icache.prefetcher.num_hwpf_issued            0                       # number of hwpf issued
system.cpu.icache.prefetcher.pfBufferHit            0                       # number of redundant prefetches already in prefetch queue
system.cpu.icache.prefetcher.pfIdentified            0                       # number of prefetch candidates identified
system.cpu.icache.prefetcher.pfInCache              0                       # number of redundant prefetches already in cache/mshr dropped
system.cpu.icache.prefetcher.pfRemovedFull            0                       # number of prefetches dropped due to prefetch queue size
system.cpu.icache.prefetcher.pfSpanPage             0                       # number of prefetches that crossed the page
system.cpu.idleCycles                          148548                       # Total number of cycles that the CPU has spent unscheduled due to idling
system.cpu.iew.branchMispredicts                27149                       # Number of branch mispredicts detected at execute
system.cpu.iew.exec_branches                   374018                       # Number of branches executed
system.cpu.iew.exec_nop                             0                       # number of nop insts executed
system.cpu.iew.exec_rate                     1.521247                       # Inst execution rate
system.cpu.iew.exec_refs                       760345                       # number of memory reference insts executed
system.cpu.iew.exec_stores                     189334                       # Number of stores executed
system.cpu.iew.exec_swp                             0                       # number of swp insts executed
system.cpu.iew.iewBlockCycles                  695422                       # Number of cycles IEW is blocking
system.cpu.iew.iewDispLoadInsts                600537                       # Number of dispatched load instructions
system.cpu.iew.iewDispNonSpecInsts                907                       # Number of dispatched non-speculative instructions
system.cpu.iew.iewDispSquashedInsts               517                       # Number of squashed instructions skipped by dispatch
system.cpu.iew.iewDispStoreInsts               199233                       # Number of dispatched store instructions
system.cpu.iew.iewDispatchedInsts             4450253                       # Number of instructions dispatched to IQ
system.cpu.iew.iewExecLoadInsts                571011                       # Number of load instructions executed
system.cpu.iew.iewExecSquashedInsts             32376                       # Number of squashed instructions skipped in execute
system.cpu.iew.iewExecutedInsts               4110440                       # Number of executed instructions
system.cpu.iew.iewIQFullEvents                   3363                       # Number of times the IQ has become full, causing a stall
system.cpu.iew.iewIdleCycles                        0                       # Number of cycles IEW is idle
system.cpu.iew.iewLSQFullEvents                  9993                       # Number of times the LSQ has become full, causing a stall
system.cpu.iew.iewSquashCycles                  22903                       # Number of cycles IEW is squashing
system.cpu.iew.iewUnblockCycles                 16241                       # Number of cycles IEW is unblocking
system.cpu.iew.lsq.thread0.blockedLoads             0                       # Number of blocked loads due to partial load-store forwarding
system.cpu.iew.lsq.thread0.cacheBlocked           568                       # Number of times an access to memory failed due to the cache being blocked
system.cpu.iew.lsq.thread0.forwLoads            38971                       # Number of loads that had data forwarded from stores
system.cpu.iew.lsq.thread0.ignoredResponses          234                       # Number of memory responses ignored because the instruction is squashed
system.cpu.iew.lsq.thread0.invAddrLoads             0                       # Number of loads ignored due to an invalid address
system.cpu.iew.lsq.thread0.invAddrSwpfs             0                       # Number of software prefetches ignored due to an invalid address
system.cpu.iew.lsq.thread0.memOrderViolation           74                       # Number of memory ordering violations
system.cpu.iew.lsq.thread0.rescheduledLoads            0                       # Number of loads that were rescheduled
system.cpu.iew.lsq.thread0.squashedLoads       109011                       # Number of loads squashed
system.cpu.iew.lsq.thread0.squashedStores        27457                       # Number of stores squashed
system.cpu.iew.memOrderViolationEvents             74                       # Number of memory order violations
system.cpu.iew.predictedNotTakenIncorrect        19316                       # Number of branches that were predicted not taken incorrectly
system.cpu.iew.predictedTakenIncorrect           7833                       # Number of branches that were predicted taken incorrectly
system.cpu.iew.wb_consumers                   5776297                       # num instructions consuming a value
system.cpu.iew.wb_count                       4089703                       # cumulative count of insts written-back
system.cpu.iew.wb_fanout                     0.567002                       # average fanout of values written-back
system.cpu.iew.wb_producers                   3275174                       # num instructions producing a value
system.cpu.iew.wb_rate                       1.513572                       # insts written-back per cycle
system.cpu.iew.wb_sent                        4096235                       # cumulative count of insts sent to commit
system.cpu.int_regfile_reads                  6368934                       # number of integer regfile reads
system.cpu.int_regfile_writes                 3532454                       # number of integer regfile writes
system.cpu.ipc                               0.769768                       # IPC: Instructions Per Cycle
system.cpu.ipc_total                         0.769768                       # IPC: Total IPC of All Threads
system.cpu.iq.FU_type_0::No_OpClass             25528      0.62%      0.62% # Type of FU issued
system.cpu.iq.FU_type_0::IntAlu               3254398     78.56%     79.17% # Type of FU issued
system.cpu.iq.FU_type_0::IntMult                 1292      0.03%     79.20% # Type of FU issued
system.cpu.iq.FU_type_0::IntDiv                 39143      0.94%     80.15% # Type of FU issued
system.cpu.iq.FU_type_0::FloatAdd                4352      0.11%     80.25% # Type of FU issued
system.cpu.iq.FU_type_0::FloatCmp                   0      0.00%     80.25% # Type of FU issued
system.cpu.iq.FU_type_0::FloatCvt                1231      0.03%     80.28% # Type of FU issued
system.cpu.iq.FU_type_0::FloatMult                  0      0.00%     80.28% # Type of FU issued
system.cpu.iq.FU_type_0::FloatMultAcc               0      0.00%     80.28% # Type of FU issued
system.cpu.iq.FU_type_0::FloatDiv                   0      0.00%     80.28% # Type of FU issued
system.cpu.iq.FU_type_0::FloatMisc                  0      0.00%     80.28% # Type of FU issued
system.cpu.iq.FU_type_0::FloatSqrt                  0      0.00%     80.28% # Type of FU issued
system.cpu.iq.FU_type_0::SimdAdd                 6773      0.16%     80.45% # Type of FU issued
system.cpu.iq.FU_type_0::SimdAddAcc                 0      0.00%     80.45% # Type of FU issued
system.cpu.iq.FU_type_0::SimdAlu                14625      0.35%     80.80% # Type of FU issued
system.cpu.iq.FU_type_0::SimdCmp                    0      0.00%     80.80% # Type of FU issued
system.cpu.iq.FU_type_0::SimdCvt                13698      0.33%     81.13% # Type of FU issued
system.cpu.iq.FU_type_0::SimdMisc                7021      0.17%     81.30% # Type of FU issued
system.cpu.iq.FU_type_0::SimdMult                   0      0.00%     81.30% # Type of FU issued
system.cpu.iq.FU_type_0::SimdMultAcc                0      0.00%     81.30% # Type of FU issued
system.cpu.iq.FU_type_0::SimdShift               2120      0.05%     81.35% # Type of FU issued
system.cpu.iq.FU_type_0::SimdShiftAcc               0      0.00%     81.35% # Type of FU issued
system.cpu.iq.FU_type_0::SimdDiv                    0      0.00%     81.35% # Type of FU issued
system.cpu.iq.FU_type_0::SimdSqrt                   0      0.00%     81.35% # Type of FU issued
system.cpu.iq.FU_type_0::SimdFloatAdd               0      0.00%     81.35% # Type of FU issued
system.cpu.iq.FU_type_0::SimdFloatAlu               0      0.00%     81.35% # Type of FU issued
system.cpu.iq.FU_type_0::SimdFloatCmp               0      0.00%     81.35% # Type of FU issued
system.cpu.iq.FU_type_0::SimdFloatCvt               0      0.00%     81.35% # Type of FU issued
system.cpu.iq.FU_type_0::SimdFloatDiv               0      0.00%     81.35% # Type of FU issued
system.cpu.iq.FU_type_0::SimdFloatMisc              0      0.00%     81.35% # Type of FU issued
system.cpu.iq.FU_type_0::SimdFloatMult              0      0.00%     81.35% # Type of FU issued
system.cpu.iq.FU_type_0::SimdFloatMultAcc            0      0.00%     81.35% # Type of FU issued
system.cpu.iq.FU_type_0::SimdFloatSqrt              0      0.00%     81.35% # Type of FU issued
system.cpu.iq.FU_type_0::SimdReduceAdd              0      0.00%     81.35% # Type of FU issued
system.cpu.iq.FU_type_0::SimdReduceAlu              0      0.00%     81.35% # Type of FU issued
system.cpu.iq.FU_type_0::SimdReduceCmp              0      0.00%     81.35% # Type of FU issued
system.cpu.iq.FU_type_0::SimdFloatReduceAdd            0      0.00%     81.35% # Type of FU issued
system.cpu.iq.FU_type_0::SimdFloatReduceCmp            0      0.00%     81.35% # Type of FU issued
system.cpu.iq.FU_type_0::SimdAes                    0      0.00%     81.35% # Type of FU issued
system.cpu.iq.FU_type_0::SimdAesMix                 0      0.00%     81.35% # Type of FU issued
system.cpu.iq.FU_type_0::SimdSha1Hash               0      0.00%     81.35% # Type of FU issued
system.cpu.iq.FU_type_0::SimdSha1Hash2              0      0.00%     81.35% # Type of FU issued
system.cpu.iq.FU_type_0::SimdSha256Hash             0      0.00%     81.35% # Type of FU issued
system.cpu.iq.FU_type_0::SimdSha256Hash2            0      0.00%     81.35% # Type of FU issued
system.cpu.iq.FU_type_0::SimdShaSigma2              0      0.00%     81.35% # Type of FU issued
system.cpu.iq.FU_type_0::SimdShaSigma3              0      0.00%     81.35% # Type of FU issued
system.cpu.iq.FU_type_0::SimdPredAlu                0      0.00%     81.35% # Type of FU issued
system.cpu.iq.FU_type_0::MemRead               555794     13.42%     94.77% # Type of FU issued
system.cpu.iq.FU_type_0::MemWrite              178613      4.31%     99.08% # Type of FU issued
system.cpu.iq.FU_type_0::FloatMemRead           25001      0.60%     99.68% # Type of FU issued
system.cpu.iq.FU_type_0::FloatMemWrite          13230      0.32%    100.00% # Type of FU issued
system.cpu.iq.FU_type_0::IprAccess                  0      0.00%    100.00% # Type of FU issued
system.cpu.iq.FU_type_0::InstPrefetch               0      0.00%    100.00% # Type of FU issued
system.cpu.iq.FU_type_0::total                4142819                       # Type of FU issued
system.cpu.iq.fp_alu_accesses                   89058                       # Number of floating point alu accesses
system.cpu.iq.fp_inst_queue_reads              179511                       # Number of floating instruction queue reads
system.cpu.iq.fp_inst_queue_wakeup_accesses        85476                       # Number of floating instruction queue wakeup accesses
system.cpu.iq.fp_inst_queue_writes             130214                       # Number of floating instruction queue writes
system.cpu.iq.fu_busy_cnt                           0                       # FU busy when requested
system.cpu.iq.fu_busy_rate                          0                       # FU busy rate (busy events/executed inst)
system.cpu.iq.fu_full::No_OpClass                   0                       # attempts to use FU when none available
system.cpu.iq.fu_full::IntAlu                       0                       # attempts to use FU when none available
system.cpu.iq.fu_full::IntMult                      0                       # attempts to use FU when none available
system.cpu.iq.fu_full::IntDiv                       0                       # attempts to use FU when none available
system.cpu.iq.fu_full::FloatAdd                     0                       # attempts to use FU when none available
system.cpu.iq.fu_full::FloatCmp                     0                       # attempts to use FU when none available
system.cpu.iq.fu_full::FloatCvt                     0                       # attempts to use FU when none available
system.cpu.iq.fu_full::FloatMult                    0                       # attempts to use FU when none available
system.cpu.iq.fu_full::FloatMultAcc                 0                       # attempts to use FU when none available
system.cpu.iq.fu_full::FloatDiv                     0                       # attempts to use FU when none available
system.cpu.iq.fu_full::FloatMisc                    0                       # attempts to use FU when none available
system.cpu.iq.fu_full::FloatSqrt                    0                       # attempts to use FU when none available
system.cpu.iq.fu_full::SimdAdd                      0                       # attempts to use FU when none available
system.cpu.iq.fu_full::SimdAddAcc                   0                       # attempts to use FU when none available
system.cpu.iq.fu_full::SimdAlu                      0                       # attempts to use FU when none available
system.cpu.iq.fu_full::SimdCmp                      0                       # attempts to use FU when none available
system.cpu.iq.fu_full::SimdCvt                      0                       # attempts to use FU when none available
system.cpu.iq.fu_full::SimdMisc                     0                       # attempts to use FU when none available
system.cpu.iq.fu_full::SimdMult                     0                       # attempts to use FU when none available
system.cpu.iq.fu_full::SimdMultAcc                  0                       # attempts to use FU when none available
system.cpu.iq.fu_full::SimdShift                    0                       # attempts to use FU when none available
system.cpu.iq.fu_full::SimdShiftAcc                 0                       # attempts to use FU when none available
system.cpu.iq.fu_full::SimdDiv                      0                       # attempts to use FU when none available
system.cpu.iq.fu_full::SimdSqrt                     0                       # attempts to use FU when none available
system.cpu.iq.fu_full::SimdFloatAdd                 0                       # attempts to use FU when none available
system.cpu.iq.fu_full::SimdFloatAlu                 0                       # attempts to use FU when none available
system.cpu.iq.fu_full::SimdFloatCmp                 0                       # attempts to use FU when none available
system.cpu.iq.fu_full::SimdFloatCvt                 0                       # attempts to use FU when none available
system.cpu.iq.fu_full::SimdFloatDiv                 0                       # attempts to use FU when none available
system.cpu.iq.fu_full::SimdFloatMisc                0                       # attempts to use FU when none available
system.cpu.iq.fu_full::SimdFloatMult                0                       # attempts to use FU when none available
system.cpu.iq.fu_full::SimdFloatMultAcc             0                       # attempts to use FU when none available
system.cpu.iq.fu_full::SimdFloatSqrt                0                       # attempts to use FU when none available
system.cpu.iq.fu_full::SimdReduceAdd                0                       # attempts to use FU when none available
system.cpu.iq.fu_full::SimdReduceAlu                0                       # attempts to use FU when none available
system.cpu.iq.fu_full::SimdReduceCmp                0                       # attempts to use FU when none available
system.cpu.iq.fu_full::SimdFloatReduceAdd            0                       # attempts to use FU when none available
system.cpu.iq.fu_full::SimdFloatReduceCmp            0                       # attempts to use FU when none available
system.cpu.iq.fu_full::SimdAes                      0                       # attempts to use FU when none available
system.cpu.iq.fu_full::SimdAesMix                   0                       # attempts to use FU when none available
system.cpu.iq.fu_full::SimdSha1Hash                 0                       # attempts to use FU when none available
system.cpu.iq.fu_full::SimdSha1Hash2                0                       # attempts to use FU when none available
system.cpu.iq.fu_full::SimdSha256Hash               0                       # attempts to use FU when none available
system.cpu.iq.fu_full::SimdSha256Hash2              0                       # attempts to use FU when none available
system.cpu.iq.fu_full::SimdShaSigma2                0                       # attempts to use FU when none available
system.cpu.iq.fu_full::SimdShaSigma3                0                       # attempts to use FU when none available
system.cpu.iq.fu_full::SimdPredAlu                  0                       # attempts to use FU when none available
system.cpu.iq.fu_full::MemRead                      0                       # attempts to use FU when none available
system.cpu.iq.fu_full::MemWrite                     0                       # attempts to use FU when none available
system.cpu.iq.fu_full::FloatMemRead                 0                       # attempts to use FU when none available
system.cpu.iq.fu_full::FloatMemWrite                0                       # attempts to use FU when none available
system.cpu.iq.fu_full::IprAccess                    0                       # attempts to use FU when none available
system.cpu.iq.fu_full::InstPrefetch                 0                       # attempts to use FU when none available
system.cpu.iq.int_alu_accesses                4028233                       # Number of integer alu accesses
system.cpu.iq.int_inst_queue_reads           10677054                       # Number of integer instruction queue reads
system.cpu.iq.int_inst_queue_wakeup_accesses      4004227                       # Number of integer instruction queue wakeup accesses
system.cpu.iq.int_inst_queue_writes           5159890                       # Number of integer instruction queue writes
system.cpu.iq.iqInstsAdded                    4449193                       # Number of instructions added to the IQ (excludes non-spec)
system.cpu.iq.iqInstsIssued                   4142819                       # Number of instructions issued
system.cpu.iq.iqNonSpecInstsAdded                1060                       # Number of non-speculative instructions added to the IQ
system.cpu.iq.iqSquashedInstsExamined          839778                       # Number of squashed instructions iterated over during squash; mainly for profiling
system.cpu.iq.iqSquashedInstsIssued             17457                       # Number of squashed instructions issued
system.cpu.iq.iqSquashedNonSpecRemoved            328                       # Number of squashed non-spec instructions that were removed
system.cpu.iq.iqSquashedOperandsExamined      1262980                       # Number of squashed operands that are examined and possibly removed from graph
system.cpu.iq.issued_per_cycle::samples       2553473                       # Number of insts issued each cycle
system.cpu.iq.issued_per_cycle::mean         1.622425                       # Number of insts issued each cycle
system.cpu.iq.issued_per_cycle::stdev        1.665634                       # Number of insts issued each cycle
system.cpu.iq.issued_per_cycle::underflows            0      0.00%      0.00% # Number of insts issued each cycle
system.cpu.iq.issued_per_cycle::0             1147780     44.95%     44.95% # Number of insts issued each cycle
system.cpu.iq.issued_per_cycle::1              177362      6.95%     51.90% # Number of insts issued each cycle
system.cpu.iq.issued_per_cycle::2              305010     11.94%     63.84% # Number of insts issued each cycle
system.cpu.iq.issued_per_cycle::3              337847     13.23%     77.07% # Number of insts issued each cycle
system.cpu.iq.issued_per_cycle::4              585474     22.93%    100.00% # Number of insts issued each cycle
system.cpu.iq.issued_per_cycle::overflows            0      0.00%    100.00% # Number of insts issued each cycle
system.cpu.iq.issued_per_cycle::min_value            0                       # Number of insts issued each cycle
system.cpu.iq.issued_per_cycle::max_value            4                       # Number of insts issued each cycle
system.cpu.iq.issued_per_cycle::total         2553473                       # Number of insts issued each cycle
system.cpu.iq.rate                           1.533230                       # Inst issue rate
system.cpu.iq.vec_alu_accesses                      0                       # Number of vector alu accesses
system.cpu.iq.vec_inst_queue_reads                  0                       # Number of vector instruction queue reads
system.cpu.iq.vec_inst_queue_wakeup_accesses            0                       # Number of vector instruction queue wakeup accesses
system.cpu.iq.vec_inst_queue_writes                 0                       # Number of vector instruction queue writes
system.cpu.itb.rdAccesses                           0                       # TLB accesses on read requests
system.cpu.itb.rdMisses                             0                       # TLB misses on read requests
system.cpu.itb.wrAccesses                      236948                       # TLB accesses on write requests
system.cpu.itb.wrMisses                           319                       # TLB misses on write requests
system.cpu.memDep0.conflictingLoads             13469                       # Number of conflicting loads.
system.cpu.memDep0.conflictingStores             4671                       # Number of conflicting stores.
system.cpu.memDep0.insertedLoads               600537                       # Number of loads inserted to the mem dependence unit.
system.cpu.memDep0.insertedStores              199233                       # Number of stores inserted to the mem dependence unit.
system.cpu.misc_regfile_reads                 1544771                       # number of misc regfile reads
system.cpu.misc_regfile_writes                    675                       # number of misc regfile writes
system.cpu.numCycles                          2702021                       # number of cpu cycles simulated
system.cpu.numWorkItemsCompleted                    0                       # number of work items this cpu completed
system.cpu.numWorkItemsStarted                      0                       # number of work items this cpu started
system.cpu.process.numSyscalls                     56                       # Number of system calls
system.cpu.rename.BlockCycles                  831710                       # Number of cycles rename is blocking
system.cpu.rename.CommittedMaps               4958228                       # Number of HB maps that are committed
system.cpu.rename.FullRegisterEvents               24                       # Number of times there has been no free registers
system.cpu.rename.IQFullEvents                  49123                       # Number of times rename has blocked due to IQ full
system.cpu.rename.IdleCycles                   343024                       # Number of cycles rename is idle
system.cpu.rename.LQFullEvents                  14693                       # Number of times rename has blocked due to LQ full
system.cpu.rename.ROBFullEvents                  3779                       # Number of times rename has blocked due to ROB full
system.cpu.rename.RenameLookups              11949224                       # Number of register rename lookups that rename has made
system.cpu.rename.RenamedInsts                4583596                       # Number of instructions processed by rename
system.cpu.rename.RenamedOperands             6281099                       # Number of destination operands rename has renamed
system.cpu.rename.RunCycles                   1161474                       # Number of cycles rename is running
system.cpu.rename.SQFullEvents                  73809                       # Number of times rename has blocked due to SQ full
system.cpu.rename.SquashCycles                  22903                       # Number of cycles rename is squashing
system.cpu.rename.UnblockCycles                175014                       # Number of cycles rename is unblocking
system.cpu.rename.UndoneMaps                  1322848                       # Number of HB maps that are undone due to squashing
system.cpu.rename.fp_rename_lookups            154485                       # Number of floating rename lookups
system.cpu.rename.int_rename_lookups          7266441                       # Number of integer rename lookups
system.cpu.rename.serializeStallCycles          19348                       # count of cycles rename stalled for serializing inst
system.cpu.rename.serializingInsts                861                       # count of serializing insts renamed
system.cpu.rename.skidInsts                    212095                       # count of insts added to the skid buffer
system.cpu.rename.tempSerializingInsts            910                       # count of temporary serializing insts renamed
system.cpu.rob.rob_reads                      6176898                       # The number of ROB reads
system.cpu.rob.rob_writes                     9130311                       # The number of ROB writes
system.cpu.timesIdled                            1453                       # Number of times that the entire CPU went into an idle state and unscheduled itself
system.l2bus.snoop_filter.hit_multi_requests            8                       # Number of requests hitting in the snoop filter with multiple (>1) holders of the requested data.
system.l2bus.snoop_filter.hit_multi_snoops            1                       # Number of snoops hitting in the snoop filter with multiple (>1) holders of the requested data.
system.l2bus.snoop_filter.hit_single_requests        18330                       # Number of requests hitting in the snoop filter with a single holder of the requested data.
system.l2bus.snoop_filter.hit_single_snoops          412                       # Number of snoops hitting in the snoop filter with a single holder of the requested data.
system.l2bus.snoop_filter.tot_requests          37940                       # Total number of requests made to the snoop filter.
system.l2bus.snoop_filter.tot_snoops              413                       # Total number of snoops made to the snoop filter.
system.l2cache.prefetcher.num_hwpf_issued          636                       # number of hwpf issued
system.l2cache.prefetcher.pfBufferHit               0                       # number of redundant prefetches already in prefetch queue
system.l2cache.prefetcher.pfIdentified            636                       # number of prefetch candidates identified
system.l2cache.prefetcher.pfInCache                 0                       # number of redundant prefetches already in cache/mshr dropped
system.l2cache.prefetcher.pfRemovedFull             0                       # number of prefetches dropped due to prefetch queue size
system.l2cache.prefetcher.pfSpanPage               84                       # number of prefetches that crossed the page
system.membus.snoop_filter.hit_multi_requests            0                       # Number of requests hitting in the snoop filter with multiple (>1) holders of the requested data.
system.membus.snoop_filter.hit_multi_snoops            0                       # Number of snoops hitting in the snoop filter with multiple (>1) holders of the requested data.
system.membus.snoop_filter.hit_single_requests         9296                       # Number of requests hitting in the snoop filter with a single holder of the requested data.
system.membus.snoop_filter.hit_single_snoops            0                       # Number of snoops hitting in the snoop filter with a single holder of the requested data.
system.membus.snoop_filter.tot_requests         22711                       # Total number of requests made to the snoop filter.
system.membus.snoop_filter.tot_snoops               0                       # Total number of snoops made to the snoop filter.
system.membus.pwrStateResidencyTicks::UNDEFINED   1080808000                       # Cumulative time (in ticks) in various power states
system.membus.trans_dist::ReadResp              12057                       # Transaction distribution
system.membus.trans_dist::WritebackDirty         1336                       # Transaction distribution
system.membus.trans_dist::CleanEvict             7960                       # Transaction distribution
system.membus.trans_dist::ReadExReq              1358                       # Transaction distribution
system.membus.trans_dist::ReadExResp             1358                       # Transaction distribution
system.membus.trans_dist::ReadSharedReq         12057                       # Transaction distribution
system.membus.pkt_count_system.l2cache.mem_side::system.mem_ctrl.port        36126                       # Packet count per connected master and slave (bytes)
system.membus.pkt_count_system.l2cache.mem_side::total        36126                       # Packet count per connected master and slave (bytes)
system.membus.pkt_count::total                  36126                       # Packet count per connected master and slave (bytes)
system.membus.pkt_size_system.l2cache.mem_side::system.mem_ctrl.port       944064                       # Cumulative packet size per connected master and slave (bytes)
system.membus.pkt_size_system.l2cache.mem_side::total       944064                       # Cumulative packet size per connected master and slave (bytes)
system.membus.pkt_size::total                  944064                       # Cumulative packet size per connected master and slave (bytes)
system.membus.snoops                                0                       # Total snoops (count)
system.membus.snoopTraffic                          0                       # Total snoop traffic (bytes)
system.membus.snoop_fanout::samples             13415                       # Request fanout histogram
system.membus.snoop_fanout::mean                    0                       # Request fanout histogram
system.membus.snoop_fanout::stdev                   0                       # Request fanout histogram
system.membus.snoop_fanout::underflows              0      0.00%      0.00% # Request fanout histogram
system.membus.snoop_fanout::0                   13415    100.00%    100.00% # Request fanout histogram
system.membus.snoop_fanout::1                       0      0.00%    100.00% # Request fanout histogram
system.membus.snoop_fanout::overflows               0      0.00%    100.00% # Request fanout histogram
system.membus.snoop_fanout::min_value               0                       # Request fanout histogram
system.membus.snoop_fanout::max_value               0                       # Request fanout histogram
system.membus.snoop_fanout::total               13415                       # Request fanout histogram
system.membus.reqLayer2.occupancy            11247909                       # Layer occupancy (ticks)
system.membus.reqLayer2.utilization               1.0                       # Layer utilization (%)
system.membus.respLayer0.occupancy           29119191                       # Layer occupancy (ticks)
system.membus.respLayer0.utilization              2.7                       # Layer utilization (%)
system.l2bus.pwrStateResidencyTicks::UNDEFINED   1080808000                       # Cumulative time (in ticks) in various power states
system.l2bus.trans_dist::ReadResp               17507                       # Transaction distribution
system.l2bus.trans_dist::WritebackDirty          4133                       # Transaction distribution
system.l2bus.trans_dist::CleanEvict             23572                       # Transaction distribution
system.l2bus.trans_dist::HardPFReq                918                       # Transaction distribution
system.l2bus.trans_dist::ReadExReq               2103                       # Transaction distribution
system.l2bus.trans_dist::ReadExResp              2103                       # Transaction distribution
system.l2bus.trans_dist::ReadSharedReq          17507                       # Transaction distribution
system.l2bus.pkt_count_system.cpu.icache.mem_side::system.l2cache.cpu_side         7558                       # Packet count per connected master and slave (bytes)
system.l2bus.pkt_count_system.cpu.dcache.mem_side::system.l2cache.cpu_side        49991                       # Packet count per connected master and slave (bytes)
system.l2bus.pkt_count::total                   57549                       # Packet count per connected master and slave (bytes)
system.l2bus.pkt_size_system.cpu.icache.mem_side::system.l2cache.cpu_side       166656                       # Cumulative packet size per connected master and slave (bytes)
system.l2bus.pkt_size_system.cpu.dcache.mem_side::system.l2cache.cpu_side      1267328                       # Cumulative packet size per connected master and slave (bytes)
system.l2bus.pkt_size::total                  1433984                       # Cumulative packet size per connected master and slave (bytes)
system.l2bus.snoops                             10294                       # Total snoops (count)
system.l2bus.snoopTraffic                       85568                       # Total snoop traffic (bytes)
system.l2bus.snoop_fanout::samples              29903                       # Request fanout histogram
system.l2bus.snoop_fanout::mean              0.014112                       # Request fanout histogram
system.l2bus.snoop_fanout::stdev             0.118239                       # Request fanout histogram
system.l2bus.snoop_fanout::underflows               0      0.00%      0.00% # Request fanout histogram
system.l2bus.snoop_fanout::0                    29482     98.59%     98.59% # Request fanout histogram
system.l2bus.snoop_fanout::1                      420      1.40%    100.00% # Request fanout histogram
system.l2bus.snoop_fanout::2                        1      0.00%    100.00% # Request fanout histogram
system.l2bus.snoop_fanout::overflows                0      0.00%    100.00% # Request fanout histogram
system.l2bus.snoop_fanout::min_value                0                       # Request fanout histogram
system.l2bus.snoop_fanout::max_value                2                       # Request fanout histogram
system.l2bus.snoop_fanout::total                29903                       # Request fanout histogram
system.l2bus.respLayer1.occupancy            20406399                       # Layer occupancy (ticks)
system.l2bus.respLayer1.utilization               1.9                       # Layer utilization (%)
system.l2bus.reqLayer0.occupancy             18897316                       # Layer occupancy (ticks)
system.l2bus.reqLayer0.utilization                1.7                       # Layer utilization (%)
system.l2bus.respLayer0.occupancy             3126399                       # Layer occupancy (ticks)
system.l2bus.respLayer0.utilization               0.3                       # Layer utilization (%)
system.clk_domain.clock                           400                       # Clock period in ticks
system.clk_domain.voltage_domain.voltage            1                       # Voltage in Volts
system.cpu.pwrStateResidencyTicks::ON      1080808000                       # Cumulative time (in ticks) in various power states
system.cpu.icache.pwrStateResidencyTicks::UNDEFINED   1080808000                       # Cumulative time (in ticks) in various power states
system.cpu.icache.demand_hits::.cpu.inst       233583                       # number of demand (read+write) hits
system.cpu.icache.demand_hits::total           233583                       # number of demand (read+write) hits
system.cpu.icache.overall_hits::.cpu.inst       233583                       # number of overall hits
system.cpu.icache.overall_hits::total          233583                       # number of overall hits
system.cpu.icache.demand_misses::.cpu.inst         3281                       # number of demand (read+write) misses
system.cpu.icache.demand_misses::total           3281                       # number of demand (read+write) misses
system.cpu.icache.overall_misses::.cpu.inst         3281                       # number of overall misses
system.cpu.icache.overall_misses::total          3281                       # number of overall misses
system.cpu.icache.demand_miss_latency::.cpu.inst    164365600                       # number of demand (read+write) miss cycles
system.cpu.icache.demand_miss_latency::total    164365600                       # number of demand (read+write) miss cycles
system.cpu.icache.overall_miss_latency::.cpu.inst    164365600                       # number of overall miss cycles
system.cpu.icache.overall_miss_latency::total    164365600                       # number of overall miss cycles
system.cpu.icache.demand_accesses::.cpu.inst       236864                       # number of demand (read+write) accesses
system.cpu.icache.demand_accesses::total       236864                       # number of demand (read+write) accesses
system.cpu.icache.overall_accesses::.cpu.inst       236864                       # number of overall (read+write) accesses
system.cpu.icache.overall_accesses::total       236864                       # number of overall (read+write) accesses
system.cpu.icache.demand_miss_rate::.cpu.inst     0.013852                       # miss rate for demand accesses
system.cpu.icache.demand_miss_rate::total     0.013852                       # miss rate for demand accesses
system.cpu.icache.overall_miss_rate::.cpu.inst     0.013852                       # miss rate for overall accesses
system.cpu.icache.overall_miss_rate::total     0.013852                       # miss rate for overall accesses
system.cpu.icache.demand_avg_miss_latency::.cpu.inst 50096.190186                       # average overall miss latency
system.cpu.icache.demand_avg_miss_latency::total 50096.190186                       # average overall miss latency
system.cpu.icache.overall_avg_miss_latency::.cpu.inst 50096.190186                       # average overall miss latency
system.cpu.icache.overall_avg_miss_latency::total 50096.190186                       # average overall miss latency
system.cpu.icache.blocked_cycles::no_mshrs           92                       # number of cycles access was blocked
system.cpu.icache.blocked_cycles::no_targets            0                       # number of cycles access was blocked
system.cpu.icache.blocked::no_mshrs                 3                       # number of cycles access was blocked
system.cpu.icache.blocked::no_targets               0                       # number of cycles access was blocked
system.cpu.icache.avg_blocked_cycles::no_mshrs    30.666667                       # average number of cycles each access was blocked
system.cpu.icache.avg_blocked_cycles::no_targets          nan                       # average number of cycles each access was blocked
system.cpu.icache.demand_mshr_hits::.cpu.inst          676                       # number of demand (read+write) MSHR hits
system.cpu.icache.demand_mshr_hits::total          676                       # number of demand (read+write) MSHR hits
system.cpu.icache.overall_mshr_hits::.cpu.inst          676                       # number of overall MSHR hits
system.cpu.icache.overall_mshr_hits::total          676                       # number of overall MSHR hits
system.cpu.icache.demand_mshr_misses::.cpu.inst         2605                       # number of demand (read+write) MSHR misses
system.cpu.icache.demand_mshr_misses::total         2605                       # number of demand (read+write) MSHR misses
system.cpu.icache.overall_mshr_misses::.cpu.inst         2605                       # number of overall MSHR misses
system.cpu.icache.overall_mshr_misses::total         2605                       # number of overall MSHR misses
system.cpu.icache.demand_mshr_miss_latency::.cpu.inst    131814000                       # number of demand (read+write) MSHR miss cycles
system.cpu.icache.demand_mshr_miss_latency::total    131814000                       # number of demand (read+write) MSHR miss cycles
system.cpu.icache.overall_mshr_miss_latency::.cpu.inst    131814000                       # number of overall MSHR miss cycles
system.cpu.icache.overall_mshr_miss_latency::total    131814000                       # number of overall MSHR miss cycles
system.cpu.icache.demand_mshr_miss_rate::.cpu.inst     0.010998                       # mshr miss rate for demand accesses
system.cpu.icache.demand_mshr_miss_rate::total     0.010998                       # mshr miss rate for demand accesses
system.cpu.icache.overall_mshr_miss_rate::.cpu.inst     0.010998                       # mshr miss rate for overall accesses
system.cpu.icache.overall_mshr_miss_rate::total     0.010998                       # mshr miss rate for overall accesses
system.cpu.icache.demand_avg_mshr_miss_latency::.cpu.inst 50600.383877                       # average overall mshr miss latency
system.cpu.icache.demand_avg_mshr_miss_latency::total 50600.383877                       # average overall mshr miss latency
system.cpu.icache.overall_avg_mshr_miss_latency::.cpu.inst 50600.383877                       # average overall mshr miss latency
system.cpu.icache.overall_avg_mshr_miss_latency::total 50600.383877                       # average overall mshr miss latency
system.cpu.icache.replacements                   2349                       # number of replacements
system.cpu.icache.ReadReq_hits::.cpu.inst       233583                       # number of ReadReq hits
system.cpu.icache.ReadReq_hits::total          233583                       # number of ReadReq hits
system.cpu.icache.ReadReq_misses::.cpu.inst         3281                       # number of ReadReq misses
system.cpu.icache.ReadReq_misses::total          3281                       # number of ReadReq misses
system.cpu.icache.ReadReq_miss_latency::.cpu.inst    164365600                       # number of ReadReq miss cycles
system.cpu.icache.ReadReq_miss_latency::total    164365600                       # number of ReadReq miss cycles
system.cpu.icache.ReadReq_accesses::.cpu.inst       236864                       # number of ReadReq accesses(hits+misses)
system.cpu.icache.ReadReq_accesses::total       236864                       # number of ReadReq accesses(hits+misses)
system.cpu.icache.ReadReq_miss_rate::.cpu.inst     0.013852                       # miss rate for ReadReq accesses
system.cpu.icache.ReadReq_miss_rate::total     0.013852                       # miss rate for ReadReq accesses
system.cpu.icache.ReadReq_avg_miss_latency::.cpu.inst 50096.190186                       # average ReadReq miss latency
system.cpu.icache.ReadReq_avg_miss_latency::total 50096.190186                       # average ReadReq miss latency
system.cpu.icache.ReadReq_mshr_hits::.cpu.inst          676                       # number of ReadReq MSHR hits
system.cpu.icache.ReadReq_mshr_hits::total          676                       # number of ReadReq MSHR hits
system.cpu.icache.ReadReq_mshr_misses::.cpu.inst         2605                       # number of ReadReq MSHR misses
system.cpu.icache.ReadReq_mshr_misses::total         2605                       # number of ReadReq MSHR misses
system.cpu.icache.ReadReq_mshr_miss_latency::.cpu.inst    131814000                       # number of ReadReq MSHR miss cycles
system.cpu.icache.ReadReq_mshr_miss_latency::total    131814000                       # number of ReadReq MSHR miss cycles
system.cpu.icache.ReadReq_mshr_miss_rate::.cpu.inst     0.010998                       # mshr miss rate for ReadReq accesses
system.cpu.icache.ReadReq_mshr_miss_rate::total     0.010998                       # mshr miss rate for ReadReq accesses
system.cpu.icache.ReadReq_avg_mshr_miss_latency::.cpu.inst 50600.383877                       # average ReadReq mshr miss latency
system.cpu.icache.ReadReq_avg_mshr_miss_latency::total 50600.383877                       # average ReadReq mshr miss latency
system.cpu.icache.prefetcher.pwrStateResidencyTicks::UNDEFINED   1080808000                       # Cumulative time (in ticks) in various power states
system.cpu.icache.tags.pwrStateResidencyTicks::UNDEFINED   1080808000                       # Cumulative time (in ticks) in various power states
system.cpu.icache.tags.tagsinuse           253.489453                       # Cycle average of tags in use
system.cpu.icache.tags.total_refs              207920                       # Total number of references to valid blocks.
system.cpu.icache.tags.sampled_refs              2349                       # Sample count of references to valid blocks.
system.cpu.icache.tags.avg_refs             88.514261                       # Average number of references to valid blocks.
system.cpu.icache.tags.warmup_cycle             66400                       # Cycle when the warmup percentage was hit.
system.cpu.icache.tags.occ_blocks::.cpu.inst   253.489453                       # Average occupied blocks per requestor
system.cpu.icache.tags.occ_percent::.cpu.inst     0.990193                       # Average percentage of cache occupancy
system.cpu.icache.tags.occ_percent::total     0.990193                       # Average percentage of cache occupancy
system.cpu.icache.tags.occ_task_id_blocks::1024          256                       # Occupied blocks per task id
system.cpu.icache.tags.age_task_id_blocks_1024::0           66                       # Occupied blocks per task id
system.cpu.icache.tags.age_task_id_blocks_1024::1          155                       # Occupied blocks per task id
system.cpu.icache.tags.age_task_id_blocks_1024::2           34                       # Occupied blocks per task id
system.cpu.icache.tags.age_task_id_blocks_1024::3            1                       # Occupied blocks per task id
system.cpu.icache.tags.occ_task_id_percent::1024            1                       # Percentage of cache occupancy per task id
system.cpu.icache.tags.tag_accesses            476333                       # Number of tag accesses
system.cpu.icache.tags.data_accesses           476333                       # Number of data accesses
system.cpu.dtb.walker.pwrStateResidencyTicks::UNDEFINED   1080808000                       # Cumulative time (in ticks) in various power states
system.cpu.interrupts.clk_domain.clock           6400                       # Clock period in ticks
system.cpu.itb.walker.pwrStateResidencyTicks::UNDEFINED   1080808000                       # Cumulative time (in ticks) in various power states
system.cpu.dcache.pwrStateResidencyTicks::UNDEFINED   1080808000                       # Cumulative time (in ticks) in various power states
system.cpu.dcache.demand_hits::.cpu.data       666140                       # number of demand (read+write) hits
system.cpu.dcache.demand_hits::total           666140                       # number of demand (read+write) hits
system.cpu.dcache.overall_hits::.cpu.data       666140                       # number of overall hits
system.cpu.dcache.overall_hits::total          666140                       # number of overall hits
system.cpu.dcache.demand_misses::.cpu.data        34980                       # number of demand (read+write) misses
system.cpu.dcache.demand_misses::total          34980                       # number of demand (read+write) misses
system.cpu.dcache.overall_misses::.cpu.data        34980                       # number of overall misses
system.cpu.dcache.overall_misses::total         34980                       # number of overall misses
system.cpu.dcache.demand_miss_latency::.cpu.data   1693619600                       # number of demand (read+write) miss cycles
system.cpu.dcache.demand_miss_latency::total   1693619600                       # number of demand (read+write) miss cycles
system.cpu.dcache.overall_miss_latency::.cpu.data   1693619600                       # number of overall miss cycles
system.cpu.dcache.overall_miss_latency::total   1693619600                       # number of overall miss cycles
system.cpu.dcache.demand_accesses::.cpu.data       701120                       # number of demand (read+write) accesses
system.cpu.dcache.demand_accesses::total       701120                       # number of demand (read+write) accesses
system.cpu.dcache.overall_accesses::.cpu.data       701120                       # number of overall (read+write) accesses
system.cpu.dcache.overall_accesses::total       701120                       # number of overall (read+write) accesses
system.cpu.dcache.demand_miss_rate::.cpu.data     0.049892                       # miss rate for demand accesses
system.cpu.dcache.demand_miss_rate::total     0.049892                       # miss rate for demand accesses
system.cpu.dcache.overall_miss_rate::.cpu.data     0.049892                       # miss rate for overall accesses
system.cpu.dcache.overall_miss_rate::total     0.049892                       # miss rate for overall accesses
system.cpu.dcache.demand_avg_miss_latency::.cpu.data 48416.798170                       # average overall miss latency
system.cpu.dcache.demand_avg_miss_latency::total 48416.798170                       # average overall miss latency
system.cpu.dcache.overall_avg_miss_latency::.cpu.data 48416.798170                       # average overall miss latency
system.cpu.dcache.overall_avg_miss_latency::total 48416.798170                       # average overall miss latency
system.cpu.dcache.blocked_cycles::no_mshrs        25901                       # number of cycles access was blocked
system.cpu.dcache.blocked_cycles::no_targets          161                       # number of cycles access was blocked
system.cpu.dcache.blocked::no_mshrs               699                       # number of cycles access was blocked
system.cpu.dcache.blocked::no_targets               2                       # number of cycles access was blocked
system.cpu.dcache.avg_blocked_cycles::no_mshrs    37.054363                       # average number of cycles each access was blocked
system.cpu.dcache.avg_blocked_cycles::no_targets    80.500000                       # average number of cycles each access was blocked
system.cpu.dcache.unused_prefetches              1884                       # number of HardPF blocks evicted w/o reference
system.cpu.dcache.writebacks::.writebacks         2797                       # number of writebacks
system.cpu.dcache.writebacks::total              2797                       # number of writebacks
system.cpu.dcache.demand_mshr_hits::.cpu.data        22486                       # number of demand (read+write) MSHR hits
system.cpu.dcache.demand_mshr_hits::total        22486                       # number of demand (read+write) MSHR hits
system.cpu.dcache.overall_mshr_hits::.cpu.data        22486                       # number of overall MSHR hits
system.cpu.dcache.overall_mshr_hits::total        22486                       # number of overall MSHR hits
system.cpu.dcache.demand_mshr_misses::.cpu.data        12494                       # number of demand (read+write) MSHR misses
system.cpu.dcache.demand_mshr_misses::total        12494                       # number of demand (read+write) MSHR misses
system.cpu.dcache.overall_mshr_misses::.cpu.data        12494                       # number of overall MSHR misses
system.cpu.dcache.overall_mshr_misses::.cpu.dcache.prefetcher         4511                       # number of overall MSHR misses
system.cpu.dcache.overall_mshr_misses::total        17005                       # number of overall MSHR misses
system.cpu.dcache.demand_mshr_miss_latency::.cpu.data    573138000                       # number of demand (read+write) MSHR miss cycles
system.cpu.dcache.demand_mshr_miss_latency::total    573138000                       # number of demand (read+write) MSHR miss cycles
system.cpu.dcache.overall_mshr_miss_latency::.cpu.data    573138000                       # number of overall MSHR miss cycles
system.cpu.dcache.overall_mshr_miss_latency::.cpu.dcache.prefetcher    256450374                       # number of overall MSHR miss cycles
system.cpu.dcache.overall_mshr_miss_latency::total    829588374                       # number of overall MSHR miss cycles
system.cpu.dcache.demand_mshr_miss_rate::.cpu.data     0.017820                       # mshr miss rate for demand accesses
system.cpu.dcache.demand_mshr_miss_rate::total     0.017820                       # mshr miss rate for demand accesses
system.cpu.dcache.overall_mshr_miss_rate::.cpu.data     0.017820                       # mshr miss rate for overall accesses
system.cpu.dcache.overall_mshr_miss_rate::.cpu.dcache.prefetcher          inf                       # mshr miss rate for overall accesses
system.cpu.dcache.overall_mshr_miss_rate::total     0.024254                       # mshr miss rate for overall accesses
system.cpu.dcache.demand_avg_mshr_miss_latency::.cpu.data 45873.059068                       # average overall mshr miss latency
system.cpu.dcache.demand_avg_mshr_miss_latency::total 45873.059068                       # average overall mshr miss latency
system.cpu.dcache.overall_avg_mshr_miss_latency::.cpu.data 45873.059068                       # average overall mshr miss latency
system.cpu.dcache.overall_avg_mshr_miss_latency::.cpu.dcache.prefetcher 56850.005320                       # average overall mshr miss latency
system.cpu.dcache.overall_avg_mshr_miss_latency::total 48784.967598                       # average overall mshr miss latency
system.cpu.dcache.replacements                  15981                       # number of replacements
system.cpu.dcache.ReadReq_hits::.cpu.data       496502                       # number of ReadReq hits
system.cpu.dcache.ReadReq_hits::total          496502                       # number of ReadReq hits
system.cpu.dcache.ReadReq_misses::.cpu.data        32837                       # number of ReadReq misses
system.cpu.dcache.ReadReq_misses::total         32837                       # number of ReadReq misses
system.cpu.dcache.ReadReq_miss_latency::.cpu.data   1587372400                       # number of ReadReq miss cycles
system.cpu.dcache.ReadReq_miss_latency::total   1587372400                       # number of ReadReq miss cycles
system.cpu.dcache.ReadReq_accesses::.cpu.data       529339                       # number of ReadReq accesses(hits+misses)
system.cpu.dcache.ReadReq_accesses::total       529339                       # number of ReadReq accesses(hits+misses)
system.cpu.dcache.ReadReq_miss_rate::.cpu.data     0.062034                       # miss rate for ReadReq accesses
system.cpu.dcache.ReadReq_miss_rate::total     0.062034                       # miss rate for ReadReq accesses
system.cpu.dcache.ReadReq_avg_miss_latency::.cpu.data 48340.969029                       # average ReadReq miss latency
system.cpu.dcache.ReadReq_avg_miss_latency::total 48340.969029                       # average ReadReq miss latency
system.cpu.dcache.ReadReq_mshr_hits::.cpu.data        22446                       # number of ReadReq MSHR hits
system.cpu.dcache.ReadReq_mshr_hits::total        22446                       # number of ReadReq MSHR hits
system.cpu.dcache.ReadReq_mshr_misses::.cpu.data        10391                       # number of ReadReq MSHR misses
system.cpu.dcache.ReadReq_mshr_misses::total        10391                       # number of ReadReq MSHR misses
system.cpu.dcache.ReadReq_mshr_miss_latency::.cpu.data    470047200                       # number of ReadReq MSHR miss cycles
system.cpu.dcache.ReadReq_mshr_miss_latency::total    470047200                       # number of ReadReq MSHR miss cycles
system.cpu.dcache.ReadReq_mshr_miss_rate::.cpu.data     0.019630                       # mshr miss rate for ReadReq accesses
system.cpu.dcache.ReadReq_mshr_miss_rate::total     0.019630                       # mshr miss rate for ReadReq accesses
system.cpu.dcache.ReadReq_avg_mshr_miss_latency::.cpu.data 45235.992686                       # average ReadReq mshr miss latency
system.cpu.dcache.ReadReq_avg_mshr_miss_latency::total 45235.992686                       # average ReadReq mshr miss latency
system.cpu.dcache.WriteReq_hits::.cpu.data       169638                       # number of WriteReq hits
system.cpu.dcache.WriteReq_hits::total         169638                       # number of WriteReq hits
system.cpu.dcache.WriteReq_misses::.cpu.data         2143                       # number of WriteReq misses
system.cpu.dcache.WriteReq_misses::total         2143                       # number of WriteReq misses
system.cpu.dcache.WriteReq_miss_latency::.cpu.data    106247200                       # number of WriteReq miss cycles
system.cpu.dcache.WriteReq_miss_latency::total    106247200                       # number of WriteReq miss cycles
system.cpu.dcache.WriteReq_accesses::.cpu.data       171781                       # number of WriteReq accesses(hits+misses)
system.cpu.dcache.WriteReq_accesses::total       171781                       # number of WriteReq accesses(hits+misses)
system.cpu.dcache.WriteReq_miss_rate::.cpu.data     0.012475                       # miss rate for WriteReq accesses
system.cpu.dcache.WriteReq_miss_rate::total     0.012475                       # miss rate for WriteReq accesses
system.cpu.dcache.WriteReq_avg_miss_latency::.cpu.data 49578.721419                       # average WriteReq miss latency
system.cpu.dcache.WriteReq_avg_miss_latency::total 49578.721419                       # average WriteReq miss latency
system.cpu.dcache.WriteReq_mshr_hits::.cpu.data           40                       # number of WriteReq MSHR hits
system.cpu.dcache.WriteReq_mshr_hits::total           40                       # number of WriteReq MSHR hits
system.cpu.dcache.WriteReq_mshr_misses::.cpu.data         2103                       # number of WriteReq MSHR misses
system.cpu.dcache.WriteReq_mshr_misses::total         2103                       # number of WriteReq MSHR misses
system.cpu.dcache.WriteReq_mshr_miss_latency::.cpu.data    103090800                       # number of WriteReq MSHR miss cycles
[...]
system.l2cache.demand_mshr_misses::.cpu.inst          249                       # number of demand (read+write) MSHR misses
system.l2cache.demand_mshr_misses::.cpu.data          133                       # number of demand (read+write) MSHR misses
system.l2cache.demand_mshr_misses::.cpu.dcache.prefetcher           47                       # number of demand (read+write) MSHR misses
system.l2cache.demand_mshr_misses::total          429                       # number of demand (read+write) MSHR misses
system.l2cache.overall_mshr_misses::.cpu.inst          249                       # number of overall MSHR misses
system.l2cache.overall_mshr_misses::.cpu.data          133                       # number of overall MSHR misses
system.l2cache.overall_mshr_misses::.cpu.dcache.prefetcher           47                       # number of overall MSHR misses
system.l2cache.overall_mshr_misses::total          429                       # number of overall MSHR misses
system.l2cache.demand_mshr_miss_latency::.cpu.inst     15092000                       # number of demand (read+write) MSHR miss cycles
system.l2cache.demand_mshr_miss_latency::.cpu.data      7860000                       # number of demand (read+write) MSHR miss cycles
system.l2cache.demand_mshr_miss_latency::.cpu.dcache.prefetcher      2840351                       # number of demand (read+write) MSHR miss cycles
system.l2cache.demand_mshr_miss_latency::total     25792351                       # number of demand (read+write) MSHR miss cycles
system.l2cache.overall_mshr_miss_latency::.cpu.inst     15092000                       # number of overall MSHR miss cycles
system.l2cache.overall_mshr_miss_latency::.cpu.data      7860000                       # number of overall MSHR miss cycles
system.l2cache.overall_mshr_miss_latency::.cpu.dcache.prefetcher      2840351                       # number of overall MSHR miss cycles
system.l2cache.overall_mshr_miss_latency::total     25792351                       # number of overall MSHR miss cycles
system.l2cache.demand_mshr_miss_rate::.cpu.inst     0.560811                       # mshr miss rate for demand accesses
system.l2cache.demand_mshr_miss_rate::.cpu.data     0.536290                       # mshr miss rate for demand accesses
system.l2cache.demand_mshr_miss_rate::.cpu.dcache.prefetcher     0.810345                       # mshr miss rate for demand accesses
system.l2cache.demand_mshr_miss_rate::total     0.572000                       # mshr miss rate for demand accesses
system.l2cache.overall_mshr_miss_rate::.cpu.inst     0.560811                       # mshr miss rate for overall accesses
system.l2cache.overall_mshr_miss_rate::.cpu.data     0.536290                       # mshr miss rate for overall accesses
system.l2cache.overall_mshr_miss_rate::.cpu.dcache.prefetcher     0.810345                       # mshr miss rate for overall accesses
system.l2cache.overall_mshr_miss_rate::total     0.572000                       # mshr miss rate for overall accesses
system.l2cache.demand_avg_mshr_miss_latency::.cpu.inst 60610.441767                       # average overall mshr miss latency
system.l2cache.demand_avg_mshr_miss_latency::.cpu.data 59097.744361                       # average overall mshr miss latency
system.l2cache.demand_avg_mshr_miss_latency::.cpu.dcache.prefetcher        60433                       # average overall mshr miss latency
system.l2cache.demand_avg_mshr_miss_latency::total 60122.030303                       # average overall mshr miss latency
system.l2cache.overall_avg_mshr_miss_latency::.cpu.inst 60610.441767                       # average overall mshr miss latency
system.l2cache.overall_avg_mshr_miss_latency::.cpu.data 59097.744361                       # average overall mshr miss latency
system.l2cache.overall_avg_mshr_miss_latency::.cpu.dcache.prefetcher        60433                       # average overall mshr miss latency
system.l2cache.overall_avg_mshr_miss_latency::total 60122.030303                       # average overall mshr miss latency
system.l2cache.replacements                       445                       # number of replacements
system.l2cache.WritebackDirty_hits::.writebacks          101                       # number of WritebackDirty hits
system.l2cache.WritebackDirty_hits::total          101                       # number of WritebackDirty hits
system.l2cache.WritebackDirty_accesses::.writebacks          101                       # number of WritebackDirty accesses(hits+misses)
system.l2cache.WritebackDirty_accesses::total          101                       # number of WritebackDirty accesses(hits+misses)
system.l2cache.CleanEvict_mshr_misses::.writebacks           19                       # number of CleanEvict MSHR misses
system.l2cache.CleanEvict_mshr_misses::total           19                       # number of CleanEvict MSHR misses
system.l2cache.CleanEvict_mshr_miss_rate::.writebacks          inf                       # mshr miss rate for CleanEvict accesses
system.l2cache.CleanEvict_mshr_miss_rate::total          inf                       # mshr miss rate for CleanEvict accesses
system.l2cache.ReadExReq_hits::.cpu.data            5                       # number of ReadExReq hits
system.l2cache.ReadExReq_hits::total                5                       # number of ReadExReq hits
system.l2cache.ReadExReq_misses::.cpu.data            7                       # number of ReadExReq misses
system.l2cache.ReadExReq_misses::total              7                       # number of ReadExReq misses
system.l2cache.ReadExReq_miss_latency::.cpu.data       519600                       # number of ReadExReq miss cycles
system.l2cache.ReadExReq_miss_latency::total       519600                       # number of ReadExReq miss cycles
system.l2cache.ReadExReq_accesses::.cpu.data           12                       # number of ReadExReq accesses(hits+misses)
system.l2cache.ReadExReq_accesses::total           12                       # number of ReadExReq accesses(hits+misses)
system.l2cache.ReadExReq_miss_rate::.cpu.data     0.583333                       # miss rate for ReadExReq accesses
system.l2cache.ReadExReq_miss_rate::total     0.583333                       # miss rate for ReadExReq accesses
system.l2cache.ReadExReq_avg_miss_latency::.cpu.data 74228.571429                       # average ReadExReq miss latency
system.l2cache.ReadExReq_avg_miss_latency::total 74228.571429                       # average ReadExReq miss latency
system.l2cache.ReadExReq_mshr_misses::.cpu.data            7                       # number of ReadExReq MSHR misses
system.l2cache.ReadExReq_mshr_misses::total            7                       # number of ReadExReq MSHR misses
system.l2cache.ReadExReq_mshr_miss_latency::.cpu.data       463600                       # number of ReadExReq MSHR miss cycles
system.l2cache.ReadExReq_mshr_miss_latency::total       463600                       # number of ReadExReq MSHR miss cycles
system.l2cache.ReadExReq_mshr_miss_rate::.cpu.data     0.583333                       # mshr miss rate for ReadExReq accesses
system.l2cache.ReadExReq_mshr_miss_rate::total     0.583333                       # mshr miss rate for ReadExReq accesses
system.l2cache.ReadExReq_avg_mshr_miss_latency::.cpu.data 66228.571429                       # average ReadExReq mshr miss latency
system.l2cache.ReadExReq_avg_mshr_miss_latency::total 66228.571429                       # average ReadExReq mshr miss latency
system.l2cache.ReadSharedReq_hits::.cpu.inst          195                       # number of ReadSharedReq hits
system.l2cache.ReadSharedReq_hits::.cpu.data          110                       # number of ReadSharedReq hits
system.l2cache.ReadSharedReq_hits::.cpu.dcache.prefetcher           11                       # number of ReadSharedReq hits
system.l2cache.ReadSharedReq_hits::total          316                       # number of ReadSharedReq hits
system.l2cache.ReadSharedReq_misses::.cpu.inst          249                       # number of ReadSharedReq misses
system.l2cache.ReadSharedReq_misses::.cpu.data          126                       # number of ReadSharedReq misses
system.l2cache.ReadSharedReq_misses::.cpu.dcache.prefetcher           47                       # number of ReadSharedReq misses
system.l2cache.ReadSharedReq_misses::total          422                       # number of ReadSharedReq misses
system.l2cache.ReadSharedReq_miss_latency::.cpu.inst     17084000                       # number of ReadSharedReq miss cycles
system.l2cache.ReadSharedReq_miss_latency::.cpu.data      8404400                       # number of ReadSharedReq miss cycles
system.l2cache.ReadSharedReq_miss_latency::.cpu.dcache.prefetcher      3216351                       # number of ReadSharedReq miss cycles
system.l2cache.ReadSharedReq_miss_latency::total     28704751                       # number of ReadSharedReq miss cycles
system.l2cache.ReadSharedReq_accesses::.cpu.inst          444                       # number of ReadSharedReq accesses(hits+misses)
system.l2cache.ReadSharedReq_accesses::.cpu.data          236                       # number of ReadSharedReq accesses(hits+misses)
system.l2cache.ReadSharedReq_accesses::.cpu.dcache.prefetcher           58                       # number of ReadSharedReq accesses(hits+misses)
system.l2cache.ReadSharedReq_accesses::total          738                       # number of ReadSharedReq accesses(hits+misses)
system.l2cache.ReadSharedReq_miss_rate::.cpu.inst     0.560811                       # miss rate for ReadSharedReq accesses
system.l2cache.ReadSharedReq_miss_rate::.cpu.data     0.533898                       # miss rate for ReadSharedReq accesses
system.l2cache.ReadSharedReq_miss_rate::.cpu.dcache.prefetcher     0.810345                       # miss rate for ReadSharedReq accesses
system.l2cache.ReadSharedReq_miss_rate::total     0.571816                       # miss rate for ReadSharedReq accesses
system.l2cache.ReadSharedReq_avg_miss_latency::.cpu.inst 68610.441767                       # average ReadSharedReq miss latency
system.l2cache.ReadSharedReq_avg_miss_latency::.cpu.data 66701.587302                       # average ReadSharedReq miss latency
system.l2cache.ReadSharedReq_avg_miss_latency::.cpu.dcache.prefetcher        68433                       # average ReadSharedReq miss latency
system.l2cache.ReadSharedReq_avg_miss_latency::total 68020.736967                       # average ReadSharedReq miss latency
system.l2cache.ReadSharedReq_mshr_misses::.cpu.inst          249                       # number of ReadSharedReq MSHR misses
system.l2cache.ReadSharedReq_mshr_misses::.cpu.data          126                       # number of ReadSharedReq MSHR misses
system.l2cache.ReadSharedReq_mshr_misses::.cpu.dcache.prefetcher           47                       # number of ReadSharedReq MSHR misses
system.l2cache.ReadSharedReq_mshr_misses::total          422                       # number of ReadSharedReq MSHR misses
system.l2cache.ReadSharedReq_mshr_miss_latency::.cpu.inst     15092000                       # number of ReadSharedReq MSHR miss cycles
system.l2cache.ReadSharedReq_mshr_miss_latency::.cpu.data      7396400                       # number of ReadSharedReq MSHR miss cycles
system.l2cache.ReadSharedReq_mshr_miss_latency::.cpu.dcache.prefetcher      2840351                       # number of ReadSharedReq MSHR miss cycles
system.l2cache.ReadSharedReq_mshr_miss_latency::total     25328751                       # number of ReadSharedReq MSHR miss cycles
system.l2cache.ReadSharedReq_mshr_miss_rate::.cpu.inst     0.560811                       # mshr miss rate for ReadSharedReq accesses
system.l2cache.ReadSharedReq_mshr_miss_rate::.cpu.data     0.533898                       # mshr miss rate for ReadSharedReq accesses
system.l2cache.ReadSharedReq_mshr_miss_rate::.cpu.dcache.prefetcher     0.810345                       # mshr miss rate for ReadSharedReq accesses
system.l2cache.ReadSharedReq_mshr_miss_rate::total     0.571816                       # mshr miss rate for ReadSharedReq accesses
system.l2cache.ReadSharedReq_avg_mshr_miss_latency::.cpu.inst 60610.441767                       # average ReadSharedReq mshr miss latency
system.l2cache.ReadSharedReq_avg_mshr_miss_latency::.cpu.data 58701.587302                       # average ReadSharedReq mshr miss latency
system.l2cache.ReadSharedReq_avg_mshr_miss_latency::.cpu.dcache.prefetcher        60433                       # average ReadSharedReq mshr miss latency
system.l2cache.ReadSharedReq_avg_mshr_miss_latency::total 60020.736967                       # average ReadSharedReq mshr miss latency
system.l2cache.prefetcher.pwrStateResidencyTicks::UNDEFINED     27683200                       # Cumulative time (in ticks) in various power states
system.l2cache.tags.pwrStateResidencyTicks::UNDEFINED     27683200                       # Cumulative time (in ticks) in various power states
system.l2cache.tags.tagsinuse                    4096                       # Cycle average of tags in use
system.l2cache.tags.total_refs                  19169                       # Total number of references to valid blocks.
system.l2cache.tags.sampled_refs                 4541                       # Sample count of references to valid blocks.
system.l2cache.tags.avg_refs                 4.221317                       # Average number of references to valid blocks.
system.l2cache.tags.warmup_cycle                    0                       # Cycle when the warmup percentage was hit.
system.l2cache.tags.occ_blocks::.writebacks    44.089932                       # Average occupied blocks per requestor
system.l2cache.tags.occ_blocks::.cpu.inst  1263.816383                       # Average occupied blocks per requestor
system.l2cache.tags.occ_blocks::.cpu.data  1744.068560                       # Average occupied blocks per requestor
system.l2cache.tags.occ_blocks::.cpu.dcache.prefetcher   931.315048                       # Average occupied blocks per requestor
system.l2cache.tags.occ_blocks::.l2cache.prefetcher   112.710077                       # Average occupied blocks per requestor
system.l2cache.tags.occ_percent::.writebacks     0.010764                       # Average percentage of cache occupancy
system.l2cache.tags.occ_percent::.cpu.inst     0.308549                       # Average percentage of cache occupancy
system.l2cache.tags.occ_percent::.cpu.data     0.425798                       # Average percentage of cache occupancy
system.l2cache.tags.occ_percent::.cpu.dcache.prefetcher     0.227372                       # Average percentage of cache occupancy
system.l2cache.tags.occ_percent::.l2cache.prefetcher     0.027517                       # Average percentage of cache occupancy
system.l2cache.tags.occ_percent::total       1.000000                       # Average percentage of cache occupancy
system.l2cache.tags.occ_task_id_blocks::1022          988                       # Occupied blocks per task id
system.l2cache.tags.occ_task_id_blocks::1024         3108                       # Occupied blocks per task id
system.l2cache.tags.age_task_id_blocks_1022::0            7                       # Occupied blocks per task id
system.l2cache.tags.age_task_id_blocks_1022::1           41                       # Occupied blocks per task id
system.l2cache.tags.age_task_id_blocks_1022::4          940                       # Occupied blocks per task id
system.l2cache.tags.age_task_id_blocks_1024::0          174                       # Occupied blocks per task id
system.l2cache.tags.age_task_id_blocks_1024::1          228                       # Occupied blocks per task id
system.l2cache.tags.age_task_id_blocks_1024::3            3                       # Occupied blocks per task id
system.l2cache.tags.age_task_id_blocks_1024::4         2703                       # Occupied blocks per task id
system.l2cache.tags.occ_task_id_percent::1022     0.241211                       # Percentage of cache occupancy per task id
system.l2cache.tags.occ_task_id_percent::1024     0.758789                       # Percentage of cache occupancy per task id
system.l2cache.tags.tag_accesses                12429                       # Number of tag accesses
system.l2cache.tags.data_accesses               12429                       # Number of data accesses
system.mem_ctrl.pwrStateResidencyTicks::UNDEFINED     27683200                       # Cumulative time (in ticks) in various power states
system.mem_ctrl.bytes_read::.cpu.inst           15936                       # Number of bytes read from this memory
system.mem_ctrl.bytes_read::.cpu.data            8512                       # Number of bytes read from this memory
system.mem_ctrl.bytes_read::.cpu.dcache.prefetcher         3008                       # Number of bytes read from this memory
system.mem_ctrl.bytes_read::total               27456                       # Number of bytes read from this memory
system.mem_ctrl.bytes_inst_read::.cpu.inst        15936                       # Number of instructions bytes read from this memory
system.mem_ctrl.bytes_inst_read::total          15936                       # Number of instructions bytes read from this memory
system.mem_ctrl.bytes_written::.writebacks         1920                       # Number of bytes written to this memory
system.mem_ctrl.bytes_written::total             1920                       # Number of bytes written to this memory
system.mem_ctrl.num_reads::.cpu.inst              249                       # Number of read requests responded to by this memory
system.mem_ctrl.num_reads::.cpu.data              133                       # Number of read requests responded to by this memory
system.mem_ctrl.num_reads::.cpu.dcache.prefetcher           47                       # Number of read requests responded to by this memory
system.mem_ctrl.num_reads::total                  429                       # Number of read requests responded to by this memory
system.mem_ctrl.num_writes::.writebacks            30                       # Number of write requests responded to by this memory
system.mem_ctrl.num_writes::total                  30                       # Number of write requests responded to by this memory
system.mem_ctrl.bw_read::.cpu.inst          575655994                       # Total read bandwidth from this memory (bytes/s)
system.mem_ctrl.bw_read::.cpu.data          307478904                       # Total read bandwidth from this memory (bytes/s)
system.mem_ctrl.bw_read::.cpu.dcache.prefetcher    108657959                       # Total read bandwidth from this memory (bytes/s)
system.mem_ctrl.bw_read::total              991792856                       # Total read bandwidth from this memory (bytes/s)
system.mem_ctrl.bw_inst_read::.cpu.inst     575655994                       # Instruction read bandwidth from this memory (bytes/s)
system.mem_ctrl.bw_inst_read::total         575655994                       # Instruction read bandwidth from this memory (bytes/s)
system.mem_ctrl.bw_write::.writebacks        69356144                       # Write bandwidth from this memory (bytes/s)
system.mem_ctrl.bw_write::total              69356144                       # Write bandwidth from this memory (bytes/s)
system.mem_ctrl.bw_total::.writebacks        69356144                       # Total bandwidth to/from this memory (bytes/s)
system.mem_ctrl.bw_total::.cpu.inst         575655994                       # Total bandwidth to/from this memory (bytes/s)
system.mem_ctrl.bw_total::.cpu.data         307478904                       # Total bandwidth to/from this memory (bytes/s)
system.mem_ctrl.bw_total::.cpu.dcache.prefetcher    108657959                       # Total bandwidth to/from this memory (bytes/s)
system.mem_ctrl.bw_total::total            1061149000                       # Total bandwidth to/from this memory (bytes/s)

---------- End Simulation Statistics   ----------
