
---------- Begin Simulation Statistics ----------
final_tick                                 1093364400                       # Number of ticks from beginning of simulation (restored from checkpoints and never reset)
host_inst_rate                                 184417                       # Simulator instruction rate (inst/s)
host_mem_usage                                4406848                       # Number of bytes of host memory used
host_op_rate                                   320965                       # Simulator op (including micro ops) rate (op/s)
host_seconds                                    11.20                       # Real time elapsed on the host
host_tick_rate                               97662491                       # Simulator tick rate (ticks/s)
sim_freq                                 1000000000000                       # Frequency of simulated ticks
sim_insts                                     2064591                       # Number of instructions simulated
sim_ops                                       3593310                       # Number of ops (including micro ops) simulated
sim_seconds                                  0.001093                       # Number of seconds simulated
sim_ticks                                  1093364400                       # Number of ticks simulated
system.cpu.branchPred.BTBCorrect                    0                       # Number of correct BTB predictions (this stat may not work properly.
system.cpu.branchPred.BTBHitPct              0.000000                       # BTB Hit Percentage
system.cpu.branchPred.BTBHits                       0                       # Number of BTB hits
system.cpu.branchPred.BTBLookups               431191                       # Number of BTB lookups
system.cpu.branchPred.RASInCorrect                  8                       # Number of incorrect RAS predictions.
system.cpu.branchPred.condIncorrect             24005                       # Number of conditional branches incorrect
system.cpu.branchPred.condPredicted            463198                       # Number of conditional branches predicted
system.cpu.branchPred.indirectHits             238058                       # Number of indirect target hits.
system.cpu.branchPred.indirectLookups          431191                       # Number of indirect predictor lookups.
system.cpu.branchPred.indirectMisses           193133                       # Number of indirect misses.
system.cpu.branchPred.lookups                  489078                       # Number of BP lookups
system.cpu.branchPred.usedRAS                   11208                       # Number of times the RAS was used to get a target.
system.cpu.branchPredindirectMispredicted        11983                       # Number of mispredicted indirect branches.
system.cpu.cc_regfile_reads                   2371584                       # number of cc regfile reads
system.cpu.cc_regfile_writes                  1934765                       # number of cc regfile writes
system.cpu.commit.amos                              0                       # Number of atomic instructions committed
system.cpu.commit.branchMispredicts             24137                       # The number of times a branch was mispredicted
system.cpu.commit.branches                     344845                       # Number of branches committed
system.cpu.commit.bw_lim_events                597383                       # number cycles where commit BW limit reached
system.cpu.commit.commitNonSpecStalls             760                       # The number of times commit has been forced to stall to communicate backwards
system.cpu.commit.commitSquashedInsts          887786                       # The number of squashed insts skipped by commit
system.cpu.commit.committedInsts              2064591                       # Number of instructions committed
system.cpu.commit.committedOps                3593310                       # Number of ops (including micro ops) committed
system.cpu.commit.committed_per_cycle::samples      2327804                       # Number of insts commited each cycle
system.cpu.commit.committed_per_cycle::mean     1.543648                       # Number of insts commited each cycle
system.cpu.commit.committed_per_cycle::stdev     1.725021                       # Number of insts commited each cycle
system.cpu.commit.committed_per_cycle::underflows            0      0.00%      0.00% # Number of insts commited each cycle
system.cpu.commit.committed_per_cycle::0      1154027     49.58%     49.58% # Number of insts commited each cycle
system.cpu.commit.committed_per_cycle::1       177495      7.62%     57.20% # Number of insts commited each cycle
system.cpu.commit.committed_per_cycle::2       170414      7.32%     64.52% # Number of insts commited each cycle
system.cpu.commit.committed_per_cycle::3       228485      9.82%     74.34% # Number of insts commited each cycle
system.cpu.commit.committed_per_cycle::4       597383     25.66%    100.00% # Number of insts commited each cycle
system.cpu.commit.committed_per_cycle::overflows            0      0.00%    100.00% # Number of insts commited each cycle
system.cpu.commit.committed_per_cycle::min_value            0                       # Number of insts commited each cycle
system.cpu.commit.committed_per_cycle::max_value            4                       # Number of insts commited each cycle
system.cpu.commit.committed_per_cycle::total      2327804                       # Number of insts commited each cycle
system.cpu.commit.fp_insts                      76063                       # Number of committed floating point instructions.
system.cpu.commit.function_calls                 9404                       # Number of function calls committed.
system.cpu.commit.int_insts                   3536496                       # Number of committed integer instructions.
system.cpu.commit.loads                        492165                       # Number of loads committed
system.cpu.commit.membars                           1                       # Number of memory barriers committed
system.cpu.commit.op_class_0::No_OpClass        20654      0.57%      0.57% # Class of committed instruction
system.cpu.commit.op_class_0::IntAlu          2825759     78.64%     79.21% # Class of committed instruction
system.cpu.commit.op_class_0::IntMult            1350      0.04%     79.25% # Class of committed instruction
system.cpu.commit.op_class_0::IntDiv            37678      1.05%     80.30% # Class of committed instruction
system.cpu.commit.op_class_0::FloatAdd           2957      0.08%     80.38% # Class of committed instruction
system.cpu.commit.op_class_0::FloatCmp              0      0.00%     80.38% # Class of committed instruction
system.cpu.commit.op_class_0::FloatCvt           1248      0.03%     80.42% # Class of committed instruction
system.cpu.commit.op_class_0::FloatMult             0      0.00%     80.42% # Class of committed instruction
system.cpu.commit.op_class_0::FloatMultAcc            0      0.00%     80.42% # Class of committed instruction
system.cpu.commit.op_class_0::FloatDiv              0      0.00%     80.42% # Class of committed instruction
system.cpu.commit.op_class_0::FloatMisc             0      0.00%     80.42% # Class of committed instruction
system.cpu.commit.op_class_0::FloatSqrt             0      0.00%     80.42% # Class of committed instruction
system.cpu.commit.op_class_0::SimdAdd            6270      0.17%     80.59% # Class of committed instruction
system.cpu.commit.op_class_0::SimdAddAcc            0      0.00%     80.59% # Class of committed instruction
system.cpu.commit.op_class_0::SimdAlu           11620      0.32%     80.92% # Class of committed instruction
system.cpu.commit.op_class_0::SimdCmp               0      0.00%     80.92% # Class of committed instruction
system.cpu.commit.op_class_0::SimdCvt           12510      0.35%     81.26% # Class of committed instruction
system.cpu.commit.op_class_0::SimdMisc           7235      0.20%     81.46% # Class of committed instruction
system.cpu.commit.op_class_0::SimdMult              0      0.00%     81.46% # Class of committed instruction
system.cpu.commit.op_class_0::SimdMultAcc            0      0.00%     81.46% # Class of committed instruction
system.cpu.commit.op_class_0::SimdShift          1316      0.04%     81.50% # Class of committed instruction
system.cpu.commit.op_class_0::SimdShiftAcc            0      0.00%     81.50% # Class of committed instruction
system.cpu.commit.op_class_0::SimdDiv               0      0.00%     81.50% # Class of committed instruction
system.cpu.commit.op_class_0::SimdSqrt              0      0.00%     81.50% # Class of committed instruction
system.cpu.commit.op_class_0::SimdFloatAdd            0      0.00%     81.50% # Class of committed instruction
system.cpu.commit.op_class_0::SimdFloatAlu            0      0.00%     81.50% # Class of committed instruction
system.cpu.commit.op_class_0::SimdFloatCmp            0      0.00%     81.50% # Class of committed instruction
system.cpu.commit.op_class_0::SimdFloatCvt            0      0.00%     81.50% # Class of committed instruction
system.cpu.commit.op_class_0::SimdFloatDiv            0      0.00%     81.50% # Class of committed instruction
system.cpu.commit.op_class_0::SimdFloatMisc            0      0.00%     81.50% # Class of committed instruction
system.cpu.commit.op_class_0::SimdFloatMult            0      0.00%     81.50% # Class of committed instruction
system.cpu.commit.op_class_0::SimdFloatMultAcc            0      0.00%     81.50% # Class of committed instruction
system.cpu.commit.op_class_0::SimdFloatSqrt            0      0.00%     81.50% # Class of committed instruction
system.cpu.commit.op_class_0::SimdReduceAdd            0      0.00%     81.50% # Class of committed instruction
system.cpu.commit.op_class_0::SimdReduceAlu            0      0.00%     81.50% # Class of committed instruction
system.cpu.commit.op_class_0::SimdReduceCmp            0      0.00%     81.50% # Class of committed instruction
system.cpu.commit.op_class_0::SimdFloatReduceAdd            0      0.00%     81.50% # Class of committed instruction
system.cpu.commit.op_class_0::SimdFloatReduceCmp            0      0.00%     81.50% # Class of committed instruction
system.cpu.commit.op_class_0::SimdAes               0      0.00%     81.50% # Class of committed instruction
system.cpu.commit.op_class_0::SimdAesMix            0      0.00%     81.50% # Class of committed instruction
system.cpu.commit.op_class_0::SimdSha1Hash            0      0.00%     81.50% # Class of committed instruction
system.cpu.commit.op_class_0::SimdSha1Hash2            0      0.00%     81.50% # Class of committed instruction
system.cpu.commit.op_class_0::SimdSha256Hash            0      0.00%     81.50% # Class of committed instruction
system.cpu.commit.op_class_0::SimdSha256Hash2            0      0.00%     81.50% # Class of committed instruction
system.cpu.commit.op_class_0::SimdShaSigma2            0      0.00%     81.50% # Class of committed instruction
system.cpu.commit.op_class_0::SimdShaSigma3            0      0.00%     81.50% # Class of committed instruction
system.cpu.commit.op_class_0::SimdPredAlu            0      0.00%     81.50% # Class of committed instruction
system.cpu.commit.op_class_0::MemRead          472591     13.15%     94.65% # Class of committed instruction
system.cpu.commit.op_class_0::MemWrite         160281      4.46%     99.11% # Class of committed instruction
system.cpu.commit.op_class_0::FloatMemRead        19574      0.54%     99.66% # Class of committed instruction
system.cpu.commit.op_class_0::FloatMemWrite        12267      0.34%    100.00% # Class of committed instruction
system.cpu.commit.op_class_0::IprAccess             0      0.00%    100.00% # Class of committed instruction
system.cpu.commit.op_class_0::InstPrefetch            0      0.00%    100.00% # Class of committed instruction
system.cpu.commit.op_class_0::total           3593310                       # Class of committed instruction
system.cpu.commit.refs                         664713                       # Number of memory references committed
system.cpu.commit.swp_count                         0                       # Number of s/w prefetches committed
system.cpu.commit.vec_insts                         0                       # Number of committed Vector instructions.
system.cpu.committedInsts                     2064591                       # Number of Instructions Simulated
system.cpu.committedOps                       3593310                       # Number of Ops (including micro ops) Simulated
system.cpu.cpi                               1.323948                       # CPI: Cycles Per Instruction
system.cpu.cpi_total                         1.323948                       # CPI: Total CPI of All Threads
system.cpu.dcache.prefetcher.num_hwpf_issued         7960                       # number of hwpf issued
system.cpu.dcache.prefetcher.pfBufferHit        33275                       # number of redundant prefetches already in prefetch queue
system.cpu.dcache.prefetcher.pfIdentified        48237                       # number of prefetch candidates identified
system.cpu.dcache.prefetcher.pfInCache              0                       # number of redundant prefetches already in cache/mshr dropped
system.cpu.dcache.prefetcher.pfRemovedFull            0                       # number of prefetches dropped due to prefetch queue size
system.cpu.dcache.prefetcher.pfSpanPage          4527                       # number of prefetches that crossed the page
system.cpu.decode.BlockedCycles               1022524                       # Number of cycles decode is blocked
system.cpu.decode.DecodedInsts                4695083                       # Number of instructions handled by decode
system.cpu.decode.IdleCycles                   294589                       # Number of cycles decode is idle
system.cpu.decode.RunCycles                   1139546                       # Number of cycles decode is running
system.cpu.decode.SquashCycles                  24209                       # Number of cycles decode is squashing
system.cpu.decode.UnblockCycles                 89016                       # Number of cycles decode is unblocking
system.cpu.dtb.rdAccesses                      575771                       # TLB accesses on read requests
system.cpu.dtb.rdMisses                          2024                       # TLB misses on read requests
system.cpu.dtb.wrAccesses                      191651                       # TLB accesses on write requests
system.cpu.dtb.wrMisses                           154                       # TLB misses on write requests
system.cpu.fetch.Branches                      489078                       # Number of branches that fetch encountered
system.cpu.fetch.CacheLines                    240473                       # Number of cache lines fetched
system.cpu.fetch.Cycles                       2213936                       # Number of cycles fetch has run and was not squashing or blocked
system.cpu.fetch.IcacheSquashes                  4637                       # Number of outstanding Icache misses that were squashed
system.cpu.fetch.Insts                        2831983                       # Number of instructions fetch has processed
system.cpu.fetch.MiscStallCycles                  160                       # Number of cycles fetch has spent waiting on interrupts, or bad addresses, or out of MSHRs
system.cpu.fetch.PendingQuiesceStallCycles           15                       # Number of stall cycles due to pending quiesce instructions
system.cpu.fetch.PendingTrapStallCycles           887                       # Number of stall cycles due to pending traps
system.cpu.fetch.SquashCycles                   48418                       # Number of cycles fetch has spent squashing
system.cpu.fetch.branchRate                  0.178926                       # Number of branch fetches per cycle
system.cpu.fetch.icacheStallCycles             330677                       # Number of cycles fetch is stalled on an Icache miss
system.cpu.fetch.predictedBranches             249266                       # Number of branches that fetch has predicted taken
system.cpu.fetch.rate                        1.036062                       # Number of inst fetches per cycle
system.cpu.fetch.rateDist::samples            2569884                       # Number of instructions fetched each cycle (Total)
system.cpu.fetch.rateDist::mean              1.934575                       # Number of instructions fetched each cycle (Total)
system.cpu.fetch.rateDist::stdev             1.930644                       # Number of instructions fetched each cycle (Total)
system.cpu.fetch.rateDist::underflows               0      0.00%      0.00% # Number of instructions fetched each cycle (Total)
system.cpu.fetch.rateDist::0                  1222863     47.58%     47.58% # Number of instructions fetched each cycle (Total)
system.cpu.fetch.rateDist::1                    73259      2.85%     50.44% # Number of instructions fetched each cycle (Total)
system.cpu.fetch.rateDist::2                    60103      2.34%     52.77% # Number of instructions fetched each cycle (Total)
system.cpu.fetch.rateDist::3                    76467      2.98%     55.75% # Number of instructions fetched each cycle (Total)
system.cpu.fetch.rateDist::4                  1137192     44.25%    100.00% # Number of instructions fetched each cycle (Total)
system.cpu.fetch.rateDist::overflows                0      0.00%    100.00% # Number of instructions fetched each cycle (Total)
system.cpu.fetch.rateDist::min_value                0                       # Number of instructions fetched each cycle (Total)
system.cpu.fetch.rateDist::max_value                4                       # Number of instructions fetched each cycle (Total)
system.cpu.fetch.rateDist::total              2569884                       # Number of instructions fetched each cycle (Total)
system.cpu.fp_regfile_reads                    125926                       # number of floating regfile reads
system.cpu.fp_regfile_writes                    69361                       # number of floating regfile writes
system.cpu.fuPool.fu_ticks_busy::IntALU(0)    217104400                       # Total ticks fu was busy
system.cpu.fuPool.fu_ticks_busy::IntALU(1)    217104400                       # Total ticks fu was busy
system.cpu.fuPool.fu_ticks_busy::IntALU(2)    217104400                       # Total ticks fu was busy
system.cpu.fuPool.fu_ticks_busy::IntALU(3)    217104000                       # Total ticks fu was busy
system.cpu.fuPool.fu_ticks_busy::IntALU(4)    217104000                       # Total ticks fu was busy
system.cpu.fuPool.fu_ticks_busy::IntALU(5)    217104000                       # Total ticks fu was busy
system.cpu.fuPool.fu_ticks_busy::IntMultDiv(0)      8570400                       # Total ticks fu was busy
system.cpu.fuPool.fu_ticks_busy::IntMultDiv(1)      8570400                       # Total ticks fu was busy
system.cpu.fuPool.fu_ticks_busy::FP_ALU(0)       593600                       # Total ticks fu was busy
system.cpu.fuPool.fu_ticks_busy::FP_ALU(1)       593600                       # Total ticks fu was busy
system.cpu.fuPool.fu_ticks_busy::FP_ALU(2)       593200                       # Total ticks fu was busy
system.cpu.fuPool.fu_ticks_busy::FP_ALU(3)       593200                       # Total ticks fu was busy
system.cpu.fuPool.fu_ticks_busy::FP_MultDiv(0)            0                       # Total ticks fu was busy
system.cpu.fuPool.fu_ticks_busy::FP_MultDiv(1)            0                       # Total ticks fu was busy
system.cpu.fuPool.fu_ticks_busy::SIMD_Unit(0)      4782000                       # Total ticks fu was busy
system.cpu.fuPool.fu_ticks_busy::SIMD_Unit(1)      4772800                       # Total ticks fu was busy
system.cpu.fuPool.fu_ticks_busy::SIMD_Unit(2)      4698000                       # Total ticks fu was busy
system.cpu.fuPool.fu_ticks_busy::SIMD_Unit(3)      4706400                       # Total ticks fu was busy
system.cpu.fuPool.fu_ticks_busy::PredALU(0)            0                       # Total ticks fu was busy
system.cpu.fuPool.fu_ticks_busy::RdWrPort(0)     78213600                       # Total ticks fu was busy
system.cpu.fuPool.fu_ticks_busy::RdWrPort(1)     78180000                       # Total ticks fu was busy
system.cpu.fuPool.fu_ticks_busy::RdWrPort(2)     78220400                       # Total ticks fu was busy
system.cpu.fuPool.fu_ticks_busy::RdWrPort(3)     78242800                       # Total ticks fu was busy
system.cpu.fuPool.fu_ticks_busy::IprPort(0)            0                       # Total ticks fu was busy
system.cpu.fuPool.fu_ticks_busy::total     1653955600                       # Total ticks fu was busy
system.cpu.icache.prefetcher.num_hwpf_issued            0                       # number of hwpf issued
system.cpu.icache.prefetcher.pfBufferHit            0                       # number of redundant prefetches already in prefetch queue
system.cpu.icache.prefetcher.pfIdentified            0                       # number of prefetch candidates identified
system.cpu.icache.prefetcher.pfInCache              0                       # number of redundant prefetches already in cache/mshr dropped
system.cpu.icache.prefetcher.pfRemovedFull            0                       # number of prefetches dropped due to prefetch queue size
system.cpu.icache.prefetcher.pfSpanPage             0                       # number of prefetches that crossed the page
system.cpu.idleCycles                          163528                       # Total number of cycles that the CPU has spent unscheduled due to idling
system.cpu.iew.branchMispredicts                28534                       # Number of branch mispredicts detected at execute
system.cpu.iew.exec_branches                   375347                       # Number of branches executed
system.cpu.iew.exec_nop                             0                       # number of nop insts executed
system.cpu.iew.exec_rate                     1.510118                       # Inst execution rate
system.cpu.iew.exec_refs                       769230                       # number of memory reference insts executed
system.cpu.iew.exec_stores                     191639                       # Number of stores executed
system.cpu.iew.exec_swp                             0                       # number of swp insts executed
system.cpu.iew.iewBlockCycles                  691895                       # Number of cycles IEW is blocking
system.cpu.iew.iewDispLoadInsts                607780                       # Number of dispatched load instructions
system.cpu.iew.iewDispNonSpecInsts                956                       # Number of dispatched non-speculative instructions
system.cpu.iew.iewDispSquashedInsts               581                       # Number of squashed instructions skipped by dispatch
system.cpu.iew.iewDispStoreInsts               201823                       # Number of dispatched store instructions
system.cpu.iew.iewDispatchedInsts             4481047                       # Number of instructions dispatched to IQ
system.cpu.iew.iewExecLoadInsts                577591                       # Number of load instructions executed
system.cpu.iew.iewExecSquashedInsts             34178                       # Number of squashed instructions skipped in execute
system.cpu.iew.iewExecutedInsts               4127775                       # Number of executed instructions
system.cpu.iew.iewIQFullEvents                   3358                       # Number of times the IQ has become full, causing a stall
system.cpu.iew.iewIdleCycles                        0                       # Number of cycles IEW is idle
system.cpu.iew.iewLSQFullEvents                  8318                       # Number of times the LSQ has become full, causing a stall
system.cpu.iew.iewSquashCycles                  24209                       # Number of cycles IEW is squashing
system.cpu.iew.iewUnblockCycles                 14689                       # Number of cycles IEW is unblocking
system.cpu.iew.lsq.thread0.blockedLoads             0                       # Number of blocked loads due to partial load-store forwarding
system.cpu.iew.lsq.thread0.cacheBlocked           636                       # Number of times an access to memory failed due to the cache being blocked
system.cpu.iew.lsq.thread0.forwLoads            39664                       # Number of loads that had data forwarded from stores
system.cpu.iew.lsq.thread0.ignoredResponses          223                       # Number of memory responses ignored because the instruction is squashed
system.cpu.iew.lsq.thread0.invAddrLoads             0                       # Number of loads ignored due to an invalid address
system.cpu.iew.lsq.thread0.invAddrSwpfs             0                       # Number of software prefetches ignored due to an invalid address
system.cpu.iew.lsq.thread0.memOrderViolation           87                       # Number of memory ordering violations
system.cpu.iew.lsq.thread0.rescheduledLoads            0                       # Number of loads that were rescheduled
system.cpu.iew.lsq.thread0.squashedLoads       115613                       # Number of loads squashed
system.cpu.iew.lsq.thread0.squashedStores        29274                       # Number of stores squashed
system.cpu.iew.memOrderViolationEvents             87                       # Number of memory order violations
system.cpu.iew.predictedNotTakenIncorrect        20471                       # Number of branches that were predicted not taken incorrectly
system.cpu.iew.predictedTakenIncorrect           8063                       # Number of branches that were predicted taken incorrectly
system.cpu.iew.wb_consumers                   5785742                       # num instructions consuming a value
system.cpu.iew.wb_count                       4105761                       # cumulative count of insts written-back
system.cpu.iew.wb_fanout                     0.567042                       # average fanout of values written-back
system.cpu.iew.wb_producers                   3280761                       # num instructions producing a value
system.cpu.iew.wb_rate                       1.502064                       # insts written-back per cycle
system.cpu.iew.wb_sent                        4112699                       # cumulative count of insts sent to commit
system.cpu.int_regfile_reads                  6390976                       # number of integer regfile reads
system.cpu.int_regfile_writes                 3545067                       # number of integer regfile writes
system.cpu.ipc                               0.755316                       # IPC: Instructions Per Cycle
system.cpu.ipc_total                         0.755316                       # IPC: Total IPC of All Threads
system.cpu.iq.FU_type_0::No_OpClass             27064      0.65%      0.65% # Type of FU issued
system.cpu.iq.FU_type_0::IntAlu               3256565     78.25%     78.90% # Type of FU issued
system.cpu.iq.FU_type_0::IntMult                 1388      0.03%     78.93% # Type of FU issued
system.cpu.iq.FU_type_0::IntDiv                 41464      1.00%     79.93% # Type of FU issued
system.cpu.iq.FU_type_0::FloatAdd                4634      0.11%     80.04% # Type of FU issued
system.cpu.iq.FU_type_0::FloatCmp                   0      0.00%     80.04% # Type of FU issued
system.cpu.iq.FU_type_0::FloatCvt                1300      0.03%     80.07% # Type of FU issued
system.cpu.iq.FU_type_0::FloatMult                  0      0.00%     80.07% # Type of FU issued
system.cpu.iq.FU_type_0::FloatMultAcc               0      0.00%     80.07% # Type of FU issued
system.cpu.iq.FU_type_0::FloatDiv                   0      0.00%     80.07% # Type of FU issued
system.cpu.iq.FU_type_0::FloatMisc                  0      0.00%     80.07% # Type of FU issued
system.cpu.iq.FU_type_0::FloatSqrt                  0      0.00%     80.07% # Type of FU issued
system.cpu.iq.FU_type_0::SimdAdd                 7003      0.17%     80.24% # Type of FU issued
system.cpu.iq.FU_type_0::SimdAddAcc                 0      0.00%     80.24% # Type of FU issued
system.cpu.iq.FU_type_0::SimdAlu                15582      0.37%     80.61% # Type of FU issued
system.cpu.iq.FU_type_0::SimdCmp                    0      0.00%     80.61% # Type of FU issued
system.cpu.iq.FU_type_0::SimdCvt                14433      0.35%     80.96% # Type of FU issued
system.cpu.iq.FU_type_0::SimdMisc                7910      0.19%     81.15% # Type of FU issued
system.cpu.iq.FU_type_0::SimdMult                   0      0.00%     81.15% # Type of FU issued
system.cpu.iq.FU_type_0::SimdMultAcc                0      0.00%     81.15% # Type of FU issued
system.cpu.iq.FU_type_0::SimdShift               2470      0.06%     81.21% # Type of FU issued
system.cpu.iq.FU_type_0::SimdShiftAcc               0      0.00%     81.21% # Type of FU issued
system.cpu.iq.FU_type_0::SimdDiv                    0      0.00%     81.21% # Type of FU issued
system.cpu.iq.FU_type_0::SimdSqrt                   0      0.00%     81.21% # Type of FU issued
system.cpu.iq.FU_type_0::SimdFloatAdd               0      0.00%     81.21% # Type of FU issued
system.cpu.iq.FU_type_0::SimdFloatAlu               0      0.00%     81.21% # Type of FU issued
system.cpu.iq.FU_type_0::SimdFloatCmp               0      0.00%     81.21% # Type of FU issued
system.cpu.iq.FU_type_0::SimdFloatCvt               0      0.00%     81.21% # Type of FU issued
system.cpu.iq.FU_type_0::SimdFloatDiv               0      0.00%     81.21% # Type of FU issued
system.cpu.iq.FU_type_0::SimdFloatMisc              0      0.00%     81.21% # Type of FU issued
system.cpu.iq.FU_type_0::SimdFloatMult              0      0.00%     81.21% # Type of FU issued
system.cpu.iq.FU_type_0::SimdFloatMultAcc            0      0.00%     81.21% # Type of FU issued
system.cpu.iq.FU_type_0::SimdFloatSqrt              0      0.00%     81.21% # Type of FU issued
system.cpu.iq.FU_type_0::SimdReduceAdd              0      0.00%     81.21% # Type of FU issued
system.cpu.iq.FU_type_0::SimdReduceAlu              0      0.00%     81.21% # Type of FU issued
system.cpu.iq.FU_type_0::SimdReduceCmp              0      0.00%     81.21% # Type of FU issued
system.cpu.iq.FU_type_0::SimdFloatReduceAdd            0      0.00%     81.21% # Type of FU issued
system.cpu.iq.FU_type_0::SimdFloatReduceCmp            0      0.00%     81.21% # Type of FU issued
system.cpu.iq.FU_type_0::SimdAes                    0      0.00%     81.21% # Type of FU issued
system.cpu.iq.FU_type_0::SimdAesMix                 0      0.00%     81.21% # Type of FU issued
system.cpu.iq.FU_type_0::SimdSha1Hash               0      0.00%     81.21% # Type of FU issued
system.cpu.iq.FU_type_0::SimdSha1Hash2              0      0.00%     81.21% # Type of FU issued
system.cpu.iq.FU_type_0::SimdSha256Hash             0      0.00%     81.21% # Type of FU issued
system.cpu.iq.FU_type_0::SimdSha256Hash2            0      0.00%     81.21% # Type of FU issued
system.cpu.iq.FU_type_0::SimdShaSigma2              0      0.00%     81.21% # Type of FU issued
system.cpu.iq.FU_type_0::SimdShaSigma3              0      0.00%     81.21% # Type of FU issued
system.cpu.iq.FU_type_0::SimdPredAlu                0      0.00%     81.21% # Type of FU issued
system.cpu.iq.FU_type_0::MemRead               562034     13.50%     94.71% # Type of FU issued
system.cpu.iq.FU_type_0::MemWrite              180543      4.34%     99.05% # Type of FU issued
system.cpu.iq.FU_type_0::FloatMemRead           25948      0.62%     99.67% # Type of FU issued
system.cpu.iq.FU_type_0::FloatMemWrite          13619      0.33%    100.00% # Type of FU issued
system.cpu.iq.FU_type_0::IprAccess                  0      0.00%    100.00% # Type of FU issued
system.cpu.iq.FU_type_0::InstPrefetch               0      0.00%    100.00% # Type of FU issued
system.cpu.iq.FU_type_0::total                4161957                       # Type of FU issued
system.cpu.iq.fp_alu_accesses                   94172                       # Number of floating point alu accesses
system.cpu.iq.fp_inst_queue_reads              189779                       # Number of floating instruction queue reads
system.cpu.iq.fp_inst_queue_wakeup_accesses        90556                       # Number of floating instruction queue wakeup accesses
system.cpu.iq.fp_inst_queue_writes             138843                       # Number of floating instruction queue writes
system.cpu.iq.fu_busy_cnt                           0                       # FU busy when requested
system.cpu.iq.fu_busy_rate                          0                       # FU busy rate (busy events/executed inst)
system.cpu.iq.fu_full::No_OpClass                   0                       # attempts to use FU when none available
system.cpu.iq.fu_full::IntAlu                       0                       # attempts to use FU when none available
system.cpu.iq.fu_full::IntMult                      0                       # attempts to use FU when none available
system.cpu.iq.fu_full::IntDiv                       0                       # attempts to use FU when none available
system.cpu.iq.fu_full::FloatAdd                     0                       # attempts to use FU when none available
system.cpu.iq.fu_full::FloatCmp                     0                       # attempts to use FU when none available
system.cpu.iq.fu_full::FloatCvt                     0                       # attempts to use FU when none available
system.cpu.iq.fu_full::FloatMult                    0                       # attempts to use FU when none available
system.cpu.iq.fu_full::FloatMultAcc                 0                       # attempts to use FU when none available
system.cpu.iq.fu_full::FloatDiv                     0                       # attempts to use FU when none available
system.cpu.iq.fu_full::FloatMisc                    0                       # attempts to use FU when none available
system.cpu.iq.fu_full::FloatSqrt                    0                       # attempts to use FU when none available
system.cpu.iq.fu_full::SimdAdd                      0                       # attempts to use FU when none available
system.cpu.iq.fu_full::SimdAddAcc                   0                       # attempts to use FU when none available
system.cpu.iq.fu_full::SimdAlu                      0                       # attempts to use FU when none available
system.cpu.iq.fu_full::SimdCmp                      0                       # attempts to use FU when none available
system.cpu.iq.fu_full::SimdCvt                      0                       # attempts to use FU when none available
system.cpu.iq.fu_full::SimdMisc                     0                       # attempts to use FU when none available
system.cpu.iq.fu_full::SimdMult                     0                       # attempts to use FU when none available
system.cpu.iq.fu_full::SimdMultAcc                  0                       # attempts to use FU when none available
system.cpu.iq.fu_full::SimdShift                    0                       # attempts to use FU when none available
system.cpu.iq.fu_full::SimdShiftAcc                 0                       # attempts to use FU when none available
system.cpu.iq.fu_full::SimdDiv                      0                       # attempts to use FU when none available
system.cpu.iq.fu_full::SimdSqrt                     0                       # attempts to use FU when none available
system.cpu.iq.fu_full::SimdFloatAdd                 0                       # attempts to use FU when none available
system.cpu.iq.fu_full::SimdFloatAlu                 0                       # attempts to use FU when none available
system.cpu.iq.fu_full::SimdFloatCmp                 0                       # attempts to use FU when none available
system.cpu.iq.fu_full::SimdFloatCvt                 0                       # attempts to use FU when none available
system.cpu.iq.fu_full::SimdFloatDiv                 0                       # attempts to use FU when none available
system.cpu.iq.fu_full::SimdFloatMisc                0                       # attempts to use FU when none available
system.cpu.iq.fu_full::SimdFloatMult                0                       # attempts to use FU when none available
system.cpu.iq.fu_full::SimdFloatMultAcc             0                       # attempts to use FU when none available
system.cpu.iq.fu_full::SimdFloatSqrt                0                       # attempts to use FU when none available
system.cpu.iq.fu_full::SimdReduceAdd                0                       # attempts to use FU when none available
system.cpu.iq.fu_full::SimdReduceAlu                0                       # attempts to use FU when none available
system.cpu.iq.fu_full::SimdReduceCmp                0                       # attempts to use FU when none available
system.cpu.iq.fu_full::SimdFloatReduceAdd            0                       # attempts to use FU when none available
system.cpu.iq.fu_full::SimdFloatReduceCmp            0                       # attempts to use FU when none available
system.cpu.iq.fu_full::SimdAes                      0                       # attempts to use FU when none available
system.cpu.iq.fu_full::SimdAesMix                   0                       # attempts to use FU when none available
system.cpu.iq.fu_full::SimdSha1Hash                 0                       # attempts to use FU when none available
system.cpu.iq.fu_full::SimdSha1Hash2                0                       # attempts to use FU when none available
system.cpu.iq.fu_full::SimdSha256Hash               0                       # attempts to use FU when none available
system.cpu.iq.fu_full::SimdSha256Hash2              0                       # attempts to use FU when none available
system.cpu.iq.fu_full::SimdShaSigma2                0                       # attempts to use FU when none available
system.cpu.iq.fu_full::SimdShaSigma3                0                       # attempts to use FU when none available
system.cpu.iq.fu_full::SimdPredAlu                  0                       # attempts to use FU when none available
system.cpu.iq.fu_full::MemRead                      0                       # attempts to use FU when none available
system.cpu.iq.fu_full::MemWrite                     0                       # attempts to use FU when none available
system.cpu.iq.fu_full::FloatMemRead                 0                       # attempts to use FU when none available
system.cpu.iq.fu_full::FloatMemWrite                0                       # attempts to use FU when none available
system.cpu.iq.fu_full::IprAccess                    0                       # attempts to use FU when none available
system.cpu.iq.fu_full::InstPrefetch                 0                       # attempts to use FU when none available
system.cpu.iq.int_alu_accesses                4040721                       # Number of integer alu accesses
system.cpu.iq.int_inst_queue_reads           10722391                       # Number of integer instruction queue reads
system.cpu.iq.int_inst_queue_wakeup_accesses      4015205                       # Number of integer instruction queue wakeup accesses
system.cpu.iq.int_inst_queue_writes           5230016                       # Number of integer instruction queue writes
system.cpu.iq.iqInstsAdded                    4479908                       # Number of instructions added to the IQ (excludes non-spec)
system.cpu.iq.iqInstsIssued                   4161957                       # Number of instructions issued
system.cpu.iq.iqNonSpecInstsAdded                1139                       # Number of non-speculative instructions added to the IQ
system.cpu.iq.iqSquashedInstsExamined          887726                       # Number of squashed instructions iterated over during squash; mainly for profiling
system.cpu.iq.iqSquashedInstsIssued             18376                       # Number of squashed instructions issued
system.cpu.iq.iqSquashedNonSpecRemoved            379                       # Number of squashed non-spec instructions that were removed
system.cpu.iq.iqSquashedOperandsExamined      1318944                       # Number of squashed operands that are examined and possibly removed from graph
system.cpu.iq.issued_per_cycle::samples       2569884                       # Number of insts issued each cycle
system.cpu.iq.issued_per_cycle::mean         1.619512                       # Number of insts issued each cycle
system.cpu.iq.issued_per_cycle::stdev        1.670606                       # Number of insts issued each cycle
system.cpu.iq.issued_per_cycle::underflows            0      0.00%      0.00% # Number of insts issued each cycle
system.cpu.iq.issued_per_cycle::0             1164698     45.32%     45.32% # Number of insts issued each cycle
system.cpu.iq.issued_per_cycle::1              173579      6.75%     52.08% # Number of insts issued each cycle
system.cpu.iq.issued_per_cycle::2              299871     11.67%     63.74% # Number of insts issued each cycle
system.cpu.iq.issued_per_cycle::3              338308     13.16%     76.91% # Number of insts issued each cycle
system.cpu.iq.issued_per_cycle::4              593428     23.09%    100.00% # Number of insts issued each cycle
system.cpu.iq.issued_per_cycle::overflows            0      0.00%    100.00% # Number of insts issued each cycle
system.cpu.iq.issued_per_cycle::min_value            0                       # Number of insts issued each cycle
system.cpu.iq.issued_per_cycle::max_value            4                       # Number of insts issued each cycle
system.cpu.iq.issued_per_cycle::total         2569884                       # Number of insts issued each cycle
system.cpu.iq.rate                           1.522623                       # Inst issue rate
system.cpu.iq.vec_alu_accesses                      0                       # Number of vector alu accesses
system.cpu.iq.vec_inst_queue_reads                  0                       # Number of vector instruction queue reads
system.cpu.iq.vec_inst_queue_wakeup_accesses            0                       # Number of vector instruction queue wakeup accesses
system.cpu.iq.vec_inst_queue_writes                 0                       # Number of vector instruction queue writes
system.cpu.itb.rdAccesses                           0                       # TLB accesses on read requests
system.cpu.itb.rdMisses                             0                       # TLB misses on read requests
system.cpu.itb.wrAccesses                      240625                       # TLB accesses on write requests
system.cpu.itb.wrMisses                           404                       # TLB misses on write requests
system.cpu.memDep0.conflictingLoads             11463                       # Number of conflicting loads.
system.cpu.memDep0.conflictingStores             4461                       # Number of conflicting stores.
system.cpu.memDep0.insertedLoads               607780                       # Number of loads inserted to the mem dependence unit.
system.cpu.memDep0.insertedStores              201823                       # Number of stores inserted to the mem dependence unit.
system.cpu.misc_regfile_reads                 1555065                       # number of misc regfile reads
system.cpu.misc_regfile_writes                    702                       # number of misc regfile writes
system.cpu.numCycles                          2733412                       # number of cpu cycles simulated
system.cpu.numWorkItemsCompleted                    0                       # number of work items this cpu completed
system.cpu.numWorkItemsStarted                      0                       # number of work items this cpu started
system.cpu.process.numSyscalls                     57                       # Number of system calls
system.cpu.rename.BlockCycles                  836016                       # Number of cycles rename is blocking
system.cpu.rename.CommittedMaps               4921084                       # Number of HB maps that are committed
system.cpu.rename.FullRegisterEvents              168                       # Number of times there has been no free registers
system.cpu.rename.IQFullEvents                  47388                       # Number of times rename has blocked due to IQ full
system.cpu.rename.IdleCycles                   344820                       # Number of cycles rename is idle
system.cpu.rename.LQFullEvents                  18020                       # Number of times rename has blocked due to LQ full
system.cpu.rename.ROBFullEvents                  4386                       # Number of times rename has blocked due to ROB full
system.cpu.rename.RenameLookups              12073915                       # Number of register rename lookups that rename has made
system.cpu.rename.RenamedInsts                4621281                       # Number of instructions processed by rename
system.cpu.rename.RenamedOperands             6315880                       # Number of destination operands rename has renamed
system.cpu.rename.RunCycles                   1169792                       # Number of cycles rename is running
system.cpu.rename.SQFullEvents                  72290                       # Number of times rename has blocked due to SQ full
system.cpu.rename.SquashCycles                  24209                       # Number of cycles rename is squashing
system.cpu.rename.UnblockCycles                175208                       # Number of cycles rename is unblocking
system.cpu.rename.UndoneMaps                  1394770                       # Number of HB maps that are undone due to squashing
system.cpu.rename.fp_rename_lookups            163964                       # Number of floating rename lookups
system.cpu.rename.int_rename_lookups          7328804                       # Number of integer rename lookups
system.cpu.rename.serializeStallCycles          19839                       # count of cycles rename stalled for serializing inst
system.cpu.rename.serializingInsts                897                       # count of serializing insts renamed
system.cpu.rename.skidInsts                    208526                       # count of insts added to the skid buffer
system.cpu.rename.tempSerializingInsts            949                       # count of temporary serializing insts renamed
system.cpu.rob.rob_reads                      6211517                       # The number of ROB reads
system.cpu.rob.rob_writes                     9205150                       # The number of ROB writes
system.cpu.timesIdled                            1645                       # Number of times that the entire CPU went into an idle state and unscheduled itself
system.l2bus.snoop_filter.hit_multi_requests           15                       # Number of requests hitting in the snoop filter with multiple (>1) holders of the requested data.
system.l2bus.snoop_filter.hit_multi_snoops            1                       # Number of snoops hitting in the snoop filter with multiple (>1) holders of the requested data.
system.l2bus.snoop_filter.hit_single_requests        18537                       # Number of requests hitting in the snoop filter with a single holder of the requested data.
system.l2bus.snoop_filter.hit_single_snoops          436                       # Number of snoops hitting in the snoop filter with a single holder of the requested data.
system.l2bus.snoop_filter.tot_requests          38354                       # Total number of requests made to the snoop filter.
system.l2bus.snoop_filter.tot_snoops              437                       # Total number of snoops made to the snoop filter.
system.l2cache.prefetcher.num_hwpf_issued          703                       # number of hwpf issued
system.l2cache.prefetcher.pfBufferHit               0                       # number of redundant prefetches already in prefetch queue
system.l2cache.prefetcher.pfIdentified            703                       # number of prefetch candidates identified
system.l2cache.prefetcher.pfInCache                 0                       # number of redundant prefetches already in cache/mshr dropped
system.l2cache.prefetcher.pfRemovedFull             0                       # number of prefetches dropped due to prefetch queue size
system.l2cache.prefetcher.pfSpanPage              133                       # number of prefetches that crossed the page
system.membus.snoop_filter.hit_multi_requests            0                       # Number of requests hitting in the snoop filter with multiple (>1) holders of the requested data.
system.membus.snoop_filter.hit_multi_snoops            0                       # Number of snoops hitting in the snoop filter with multiple (>1) holders of the requested data.
system.membus.snoop_filter.hit_single_requests         9434                       # Number of requests hitting in the snoop filter with a single holder of the requested data.
system.membus.snoop_filter.hit_single_snoops            0                       # Number of snoops hitting in the snoop filter with a single holder of the requested data.
system.membus.snoop_filter.tot_requests         22989                       # Total number of requests made to the snoop filter.
system.membus.snoop_filter.tot_snoops               0                       # Total number of snoops made to the snoop filter.
system.membus.pwrStateResidencyTicks::UNDEFINED   1093364400                       # Cumulative time (in ticks) in various power states
system.membus.trans_dist::ReadResp              12214                       # Transaction distribution
system.membus.trans_dist::WritebackDirty         1347                       # Transaction distribution
system.membus.trans_dist::CleanEvict             8087                       # Transaction distribution
system.membus.trans_dist::ReadExReq              1341                       # Transaction distribution
system.membus.trans_dist::ReadExResp             1341                       # Transaction distribution
system.membus.trans_dist::ReadSharedReq         12214                       # Transaction distribution
system.membus.pkt_count_system.l2cache.mem_side::system.mem_ctrl.port        36544                       # Packet count per connected master and slave (bytes)
system.membus.pkt_count_system.l2cache.mem_side::total        36544                       # Packet count per connected master and slave (bytes)
system.membus.pkt_count::total                  36544                       # Packet count per connected master and slave (bytes)
system.membus.pkt_size_system.l2cache.mem_side::system.mem_ctrl.port       953728                       # Cumulative packet size per connected master and slave (bytes)
system.membus.pkt_size_system.l2cache.mem_side::total       953728                       # Cumulative packet size per connected master and slave (bytes)
system.membus.pkt_size::total                  953728                       # Cumulative packet size per connected master and slave (bytes)
system.membus.snoops                                0                       # Total snoops (count)
system.membus.snoopTraffic                          0                       # Total snoop traffic (bytes)
system.membus.snoop_fanout::samples             13555                       # Request fanout histogram
system.membus.snoop_fanout::mean                    0                       # Request fanout histogram
system.membus.snoop_fanout::stdev                   0                       # Request fanout histogram
system.membus.snoop_fanout::underflows              0      0.00%      0.00% # Request fanout histogram
system.membus.snoop_fanout::0                   13555    100.00%    100.00% # Request fanout histogram
system.membus.snoop_fanout::1                       0      0.00%    100.00% # Request fanout histogram
system.membus.snoop_fanout::overflows               0      0.00%    100.00% # Request fanout histogram
system.membus.snoop_fanout::min_value               0                       # Request fanout histogram
system.membus.snoop_fanout::max_value               0                       # Request fanout histogram
system.membus.snoop_fanout::total               13555                       # Request fanout histogram
system.membus.reqLayer2.occupancy            11377308                       # Layer occupancy (ticks)
system.membus.reqLayer2.utilization               1.0                       # Layer utilization (%)
system.membus.respLayer0.occupancy           29411192                       # Layer occupancy (ticks)
system.membus.respLayer0.utilization              2.7                       # Layer utilization (%)
system.l2bus.pwrStateResidencyTicks::UNDEFINED   1093364400                       # Cumulative time (in ticks) in various power states
system.l2bus.trans_dist::ReadResp               17715                       # Transaction distribution
system.l2bus.trans_dist::WritebackDirty          4140                       # Transaction distribution
system.l2bus.trans_dist::CleanEvict             23922                       # Transaction distribution
system.l2bus.trans_dist::HardPFReq                988                       # Transaction distribution
system.l2bus.trans_dist::ReadExReq               2102                       # Transaction distribution
system.l2bus.trans_dist::ReadExResp              2102                       # Transaction distribution
system.l2bus.trans_dist::ReadSharedReq          17715                       # Transaction distribution
system.l2bus.pkt_count_system.cpu.icache.mem_side::system.l2cache.cpu_side         8459                       # Packet count per connected master and slave (bytes)
system.l2bus.pkt_count_system.cpu.dcache.mem_side::system.l2cache.cpu_side        49709                       # Packet count per connected master and slave (bytes)
system.l2bus.pkt_count::total                   58168                       # Packet count per connected master and slave (bytes)
system.l2bus.pkt_size_system.cpu.icache.mem_side::system.l2cache.cpu_side       185792                       # Cumulative packet size per connected master and slave (bytes)
system.l2bus.pkt_size_system.cpu.dcache.mem_side::system.l2cache.cpu_side      1261056                       # Cumulative packet size per connected master and slave (bytes)
system.l2bus.pkt_size::total                  1446848                       # Cumulative packet size per connected master and slave (bytes)
system.l2bus.snoops                             10516                       # Total snoops (count)
system.l2bus.snoopTraffic                       86400                       # Total snoop traffic (bytes)
system.l2bus.snoop_fanout::samples              30330                       # Request fanout histogram
system.l2bus.snoop_fanout::mean              0.014936                       # Request fanout histogram
system.l2bus.snoop_fanout::stdev             0.121569                       # Request fanout histogram
system.l2bus.snoop_fanout::underflows               0      0.00%      0.00% # Request fanout histogram
system.l2bus.snoop_fanout::0                    29878     98.51%     98.51% # Request fanout histogram
system.l2bus.snoop_fanout::1                      451      1.49%    100.00% # Request fanout histogram
system.l2bus.snoop_fanout::2                        1      0.00%    100.00% # Request fanout histogram
system.l2bus.snoop_fanout::overflows                0      0.00%    100.00% # Request fanout histogram
system.l2bus.snoop_fanout::min_value                0                       # Request fanout histogram
system.l2bus.snoop_fanout::max_value                2                       # Request fanout histogram
system.l2bus.snoop_fanout::total                30330                       # Request fanout histogram
system.l2bus.respLayer1.occupancy            20294796                       # Layer occupancy (ticks)
system.l2bus.respLayer1.utilization               1.9                       # Layer utilization (%)
system.l2bus.reqLayer0.occupancy             18963214                       # Layer occupancy (ticks)
system.l2bus.reqLayer0.utilization                1.7                       # Layer utilization (%)
system.l2bus.respLayer0.occupancy             3488397                       # Layer occupancy (ticks)
system.l2bus.respLayer0.utilization               0.3                       # Layer utilization (%)
system.clk_domain.clock                           400                       # Clock period in ticks
system.clk_domain.voltage_domain.voltage            1                       # Voltage in Volts
system.cpu.pwrStateResidencyTicks::ON      1093364400                       # Cumulative time (in ticks) in various power states
system.cpu.icache.pwrStateResidencyTicks::UNDEFINED   1093364400                       # Cumulative time (in ticks) in various power states
system.cpu.icache.demand_hits::.cpu.inst       236843                       # number of demand (read+write) hits
system.cpu.icache.demand_hits::total           236843                       # number of demand (read+write) hits
system.cpu.icache.overall_hits::.cpu.inst       236843                       # number of overall hits
system.cpu.icache.overall_hits::total          236843                       # number of overall hits
system.cpu.icache.demand_misses::.cpu.inst         3629                       # number of demand (read+write) misses
system.cpu.icache.demand_misses::total           3629                       # number of demand (read+write) misses
system.cpu.icache.overall_misses::.cpu.inst         3629                       # number of overall misses
system.cpu.icache.overall_misses::total          3629                       # number of overall misses
system.cpu.icache.demand_miss_latency::.cpu.inst    179730800                       # number of demand (read+write) miss cycles
system.cpu.icache.demand_miss_latency::total    179730800                       # number of demand (read+write) miss cycles
system.cpu.icache.overall_miss_latency::.cpu.inst    179730800                       # number of overall miss cycles
system.cpu.icache.overall_miss_latency::total    179730800                       # number of overall miss cycles
system.cpu.icache.demand_accesses::.cpu.inst       240472                       # number of demand (read+write) accesses
system.cpu.icache.demand_accesses::total       240472                       # number of demand (read+write) accesses
system.cpu.icache.overall_accesses::.cpu.inst       240472                       # number of overall (read+write) accesses
system.cpu.icache.overall_accesses::total       240472                       # number of overall (read+write) accesses
system.cpu.icache.demand_miss_rate::.cpu.inst     0.015091                       # miss rate for demand accesses
system.cpu.icache.demand_miss_rate::total     0.015091                       # miss rate for demand accesses
system.cpu.icache.overall_miss_rate::.cpu.inst     0.015091                       # miss rate for overall accesses
system.cpu.icache.overall_miss_rate::total     0.015091                       # miss rate for overall accesses
system.cpu.icache.demand_avg_miss_latency::.cpu.inst 49526.260678                       # average overall miss latency
system.cpu.icache.demand_avg_miss_latency::total 49526.260678                       # average overall miss latency
system.cpu.icache.overall_avg_miss_latency::.cpu.inst 49526.260678                       # average overall miss latency
system.cpu.icache.overall_avg_miss_latency::total 49526.260678                       # average overall miss latency
system.cpu.icache.blocked_cycles::no_mshrs           39                       # number of cycles access was blocked
system.cpu.icache.blocked_cycles::no_targets            0                       # number of cycles access was blocked
system.cpu.icache.blocked::no_mshrs                 2                       # number of cycles access was blocked
system.cpu.icache.blocked::no_targets               0                       # number of cycles access was blocked
system.cpu.icache.avg_blocked_cycles::no_mshrs    19.500000                       # average number of cycles each access was blocked
system.cpu.icache.avg_blocked_cycles::no_targets          nan                       # average number of cycles each access was blocked
system.cpu.icache.demand_mshr_hits::.cpu.inst          723                       # number of demand (read+write) MSHR hits
system.cpu.icache.demand_mshr_hits::total          723                       # number of demand (read+write) MSHR hits
system.cpu.icache.overall_mshr_hits::.cpu.inst          723                       # number of overall MSHR hits
system.cpu.icache.overall_mshr_hits::total          723                       # number of overall MSHR hits
system.cpu.icache.demand_mshr_misses::.cpu.inst         2906                       # number of demand (read+write) MSHR misses
system.cpu.icache.demand_mshr_misses::total         2906                       # number of demand (read+write) MSHR misses
system.cpu.icache.overall_mshr_misses::.cpu.inst         2906                       # number of overall MSHR misses
system.cpu.icache.overall_mshr_misses::total         2906                       # number of overall MSHR misses
system.cpu.icache.demand_mshr_miss_latency::.cpu.inst    145000800                       # number of demand (read+write) MSHR miss cycles
system.cpu.icache.demand_mshr_miss_latency::total    145000800                       # number of demand (read+write) MSHR miss cycles
system.cpu.icache.overall_mshr_miss_latency::.cpu.inst    145000800                       # number of overall MSHR miss cycles
system.cpu.icache.overall_mshr_miss_latency::total    145000800                       # number of overall MSHR miss cycles
system.cpu.icache.demand_mshr_miss_rate::.cpu.inst     0.012085                       # mshr miss rate for demand accesses
system.cpu.icache.demand_mshr_miss_rate::total     0.012085                       # mshr miss rate for demand accesses
system.cpu.icache.overall_mshr_miss_rate::.cpu.inst     0.012085                       # mshr miss rate for overall accesses
system.cpu.icache.overall_mshr_miss_rate::total     0.012085                       # mshr miss rate for overall accesses
system.cpu.icache.demand_avg_mshr_miss_latency::.cpu.inst 49897.040606                       # average overall mshr miss latency
system.cpu.icache.demand_avg_mshr_miss_latency::total 49897.040606                       # average overall mshr miss latency
system.cpu.icache.overall_avg_mshr_miss_latency::.cpu.inst 49897.040606                       # average overall mshr miss latency
system.cpu.icache.overall_avg_mshr_miss_latency::total 49897.040606                       # average overall mshr miss latency
system.cpu.icache.replacements                   2650                       # number of replacements
system.cpu.icache.ReadReq_hits::.cpu.inst       236843                       # number of ReadReq hits
system.cpu.icache.ReadReq_hits::total          236843                       # number of ReadReq hits
system.cpu.icache.ReadReq_misses::.cpu.inst         3629                       # number of ReadReq misses
system.cpu.icache.ReadReq_misses::total          3629                       # number of ReadReq misses
system.cpu.icache.ReadReq_miss_latency::.cpu.inst    179730800                       # number of ReadReq miss cycles
system.cpu.icache.ReadReq_miss_latency::total    179730800                       # number of ReadReq miss cycles
system.cpu.icache.ReadReq_accesses::.cpu.inst       240472                       # number of ReadReq accesses(hits+misses)
system.cpu.icache.ReadReq_accesses::total       240472                       # number of ReadReq accesses(hits+misses)
system.cpu.icache.ReadReq_miss_rate::.cpu.inst     0.015091                       # miss rate for ReadReq accesses
system.cpu.icache.ReadReq_miss_rate::total     0.015091                       # miss rate for ReadReq accesses
system.cpu.icache.ReadReq_avg_miss_latency::.cpu.inst 49526.260678                       # average ReadReq miss latency
system.cpu.icache.ReadReq_avg_miss_latency::total 49526.260678                       # average ReadReq miss latency
system.cpu.icache.ReadReq_mshr_hits::.cpu.inst          723                       # number of ReadReq MSHR hits
system.cpu.icache.ReadReq_mshr_hits::total          723                       # number of ReadReq MSHR hits
system.cpu.icache.ReadReq_mshr_misses::.cpu.inst         2906                       # number of ReadReq MSHR misses
system.cpu.icache.ReadReq_mshr_misses::total         2906                       # number of ReadReq MSHR misses
system.cpu.icache.ReadReq_mshr_miss_latency::.cpu.inst    145000800                       # number of ReadReq MSHR miss cycles
system.cpu.icache.ReadReq_mshr_miss_latency::total    145000800                       # number of ReadReq MSHR miss cycles
system.cpu.icache.ReadReq_mshr_miss_rate::.cpu.inst     0.012085                       # mshr miss rate for ReadReq accesses
system.cpu.icache.ReadReq_mshr_miss_rate::total     0.012085                       # mshr miss rate for ReadReq accesses
system.cpu.icache.ReadReq_avg_mshr_miss_latency::.cpu.inst 49897.040606                       # average ReadReq mshr miss latency
system.cpu.icache.ReadReq_avg_mshr_miss_latency::total 49897.040606                       # average ReadReq mshr miss latency
system.cpu.icache.prefetcher.pwrStateResidencyTicks::UNDEFINED   1093364400                       # Cumulative time (in ticks) in various power states
system.cpu.icache.tags.pwrStateResidencyTicks::UNDEFINED   1093364400                       # Cumulative time (in ticks) in various power states
system.cpu.icache.tags.tagsinuse           253.469986                       # Cycle average of tags in use
system.cpu.icache.tags.total_refs              229778                       # Total number of references to valid blocks.
system.cpu.icache.tags.sampled_refs              2650                       # Sample count of references to valid blocks.
system.cpu.icache.tags.avg_refs             86.708679                       # Average number of references to valid blocks.
system.cpu.icache.tags.warmup_cycle             66400                       # Cycle when the warmup percentage was hit.
system.cpu.icache.tags.occ_blocks::.cpu.inst   253.469986                       # Average occupied blocks per requestor
system.cpu.icache.tags.occ_percent::.cpu.inst     0.990117                       # Average percentage of cache occupancy
system.cpu.icache.tags.occ_percent::total     0.990117                       # Average percentage of cache occupancy
system.cpu.icache.tags.occ_task_id_blocks::1024          256                       # Occupied blocks per task id
system.cpu.icache.tags.age_task_id_blocks_1024::0          109                       # Occupied blocks per task id
system.cpu.icache.tags.age_task_id_blocks_1024::1          127                       # Occupied blocks per task id
system.cpu.icache.tags.age_task_id_blocks_1024::2           18                       # Occupied blocks per task id
system.cpu.icache.tags.age_task_id_blocks_1024::3            2                       # Occupied blocks per task id
system.cpu.icache.tags.occ_task_id_percent::1024            1                       # Percentage of cache occupancy per task id
system.cpu.icache.tags.tag_accesses            483850                       # Number of tag accesses
system.cpu.icache.tags.data_accesses           483850                       # Number of data accesses
system.cpu.dtb.walker.pwrStateResidencyTicks::UNDEFINED   1093364400                       # Cumulative time (in ticks) in various power states
system.cpu.interrupts.clk_domain.clock           6400                       # Clock period in ticks
system.cpu.itb.walker.pwrStateResidencyTicks::UNDEFINED   1093364400                       # Cumulative time (in ticks) in various power states
system.cpu.dcache.pwrStateResidencyTicks::UNDEFINED   1093364400                       # Cumulative time (in ticks) in various power states
system.cpu.dcache.demand_hits::.cpu.data       672318                       # number of demand (read+write) hits
system.cpu.dcache.demand_hits::total           672318                       # number of demand (read+write) hits
system.cpu.dcache.overall_hits::.cpu.data       672318                       # number of overall hits
system.cpu.dcache.overall_hits::total          672318                       # number of overall hits
system.cpu.dcache.demand_misses::.cpu.data        35234                       # number of demand (read+write) misses
system.cpu.dcache.demand_misses::total          35234                       # number of demand (read+write) misses
system.cpu.dcache.overall_misses::.cpu.data        35234                       # number of overall misses
system.cpu.dcache.overall_misses::total         35234                       # number of overall misses
system.cpu.dcache.demand_miss_latency::.cpu.data   1703693999                       # number of demand (read+write) miss cycles
system.cpu.dcache.demand_miss_latency::total   1703693999                       # number of demand (read+write) miss cycles
system.cpu.dcache.overall_miss_latency::.cpu.data   1703693999                       # number of overall miss cycles
system.cpu.dcache.overall_miss_latency::total   1703693999                       # number of overall miss cycles
system.cpu.dcache.demand_accesses::.cpu.data       707552                       # number of demand (read+write) accesses
system.cpu.dcache.demand_accesses::total       707552                       # number of demand (read+write) accesses
system.cpu.dcache.overall_accesses::.cpu.data       707552                       # number of overall (read+write) accesses
system.cpu.dcache.overall_accesses::total       707552                       # number of overall (read+write) accesses
system.cpu.dcache.demand_miss_rate::.cpu.data     0.049797                       # miss rate for demand accesses
system.cpu.dcache.demand_miss_rate::total     0.049797                       # miss rate for demand accesses
system.cpu.dcache.overall_miss_rate::.cpu.data     0.049797                       # miss rate for overall accesses
system.cpu.dcache.overall_miss_rate::total     0.049797                       # miss rate for overall accesses
system.cpu.dcache.demand_avg_miss_latency::.cpu.data 48353.692428                       # average overall miss latency
system.cpu.dcache.demand_avg_miss_latency::total 48353.692428                       # average overall miss latency
system.cpu.dcache.overall_avg_miss_latency::.cpu.data 48353.692428                       # average overall miss latency
system.cpu.dcache.overall_avg_miss_latency::total 48353.692428                       # average overall miss latency
system.cpu.dcache.blocked_cycles::no_mshrs        29681                       # number of cycles access was blocked
system.cpu.dcache.blocked_cycles::no_targets          192                       # number of cycles access was blocked
system.cpu.dcache.blocked::no_mshrs               788                       # number of cycles access was blocked
system.cpu.dcache.blocked::no_targets               2                       # number of cycles access was blocked
system.cpu.dcache.avg_blocked_cycles::no_mshrs    37.666244                       # average number of cycles each access was blocked
system.cpu.dcache.avg_blocked_cycles::no_targets           96                       # average number of cycles each access was blocked
system.cpu.dcache.unused_prefetches              1735                       # number of HardPF blocks evicted w/o reference
system.cpu.dcache.writebacks::.writebacks         2793                       # number of writebacks
system.cpu.dcache.writebacks::total              2793                       # number of writebacks
system.cpu.dcache.demand_mshr_hits::.cpu.data        22569                       # number of demand (read+write) MSHR hits
system.cpu.dcache.demand_mshr_hits::total        22569                       # number of demand (read+write) MSHR hits
system.cpu.dcache.overall_mshr_hits::.cpu.data        22569                       # number of overall MSHR hits
system.cpu.dcache.overall_mshr_hits::total        22569                       # number of overall MSHR hits
system.cpu.dcache.demand_mshr_misses::.cpu.data        12665                       # number of demand (read+write) MSHR misses
system.cpu.dcache.demand_mshr_misses::total        12665                       # number of demand (read+write) MSHR misses
system.cpu.dcache.overall_mshr_misses::.cpu.data        12665                       # number of overall MSHR misses
system.cpu.dcache.overall_mshr_misses::.cpu.dcache.prefetcher         4246                       # number of overall MSHR misses
system.cpu.dcache.overall_mshr_misses::total        16911                       # number of overall MSHR misses
system.cpu.dcache.demand_mshr_miss_latency::.cpu.data    579847199                       # number of demand (read+write) MSHR miss cycles
system.cpu.dcache.demand_mshr_miss_latency::total    579847199                       # number of demand (read+write) MSHR miss cycles
system.cpu.dcache.overall_mshr_miss_latency::.cpu.data    579847199                       # number of overall MSHR miss cycles
system.cpu.dcache.overall_mshr_miss_latency::.cpu.dcache.prefetcher    244397086                       # number of overall MSHR miss cycles
system.cpu.dcache.overall_mshr_miss_latency::total    824244285                       # number of overall MSHR miss cycles
system.cpu.dcache.demand_mshr_miss_rate::.cpu.data     0.017900                       # mshr miss rate for demand accesses
system.cpu.dcache.demand_mshr_miss_rate::total     0.017900                       # mshr miss rate for demand accesses
system.cpu.dcache.overall_mshr_miss_rate::.cpu.data     0.017900                       # mshr miss rate for overall accesses
system.cpu.dcache.overall_mshr_miss_rate::.cpu.dcache.prefetcher          inf                       # mshr miss rate for overall accesses
system.cpu.dcache.overall_mshr_miss_rate::total     0.023901                       # mshr miss rate for overall accesses
system.cpu.dcache.demand_avg_mshr_miss_latency::.cpu.data 45783.434583                       # average overall mshr miss latency
system.cpu.dcache.demand_avg_mshr_miss_latency::total 45783.434583                       # average overall mshr miss latency
system.cpu.dcache.overall_avg_mshr_miss_latency::.cpu.data 45783.434583                       # average overall mshr miss latency
system.cpu.dcache.overall_avg_mshr_miss_latency::.cpu.dcache.prefetcher 57559.370231                       # average overall mshr miss latency
system.cpu.dcache.overall_avg_mshr_miss_latency::total 48740.126841                       # average overall mshr miss latency
system.cpu.dcache.replacements                  15887                       # number of replacements
system.cpu.dcache.ReadReq_hits::.cpu.data       501900                       # number of ReadReq hits
system.cpu.dcache.ReadReq_hits::total          501900                       # number of ReadReq hits
system.cpu.dcache.ReadReq_misses::.cpu.data        33096                       # number of ReadReq misses
system.cpu.dcache.ReadReq_misses::total         33096                       # number of ReadReq misses
system.cpu.dcache.ReadReq_miss_latency::.cpu.data   1598690400                       # number of ReadReq miss cycles
system.cpu.dcache.ReadReq_miss_latency::total   1598690400                       # number of ReadReq miss cycles
system.cpu.dcache.ReadReq_accesses::.cpu.data       534996                       # number of ReadReq accesses(hits+misses)
system.cpu.dcache.ReadReq_accesses::total       534996                       # number of ReadReq accesses(hits+misses)
system.cpu.dcache.ReadReq_miss_rate::.cpu.data     0.061862                       # miss rate for ReadReq accesses
system.cpu.dcache.ReadReq_miss_rate::total     0.061862                       # miss rate for ReadReq accesses
system.cpu.dcache.ReadReq_avg_miss_latency::.cpu.data 48304.641044                       # average ReadReq miss latency
system.cpu.dcache.ReadReq_avg_miss_latency::total 48304.641044                       # average ReadReq miss latency
system.cpu.dcache.ReadReq_mshr_hits::.cpu.data        22531                       # number of ReadReq MSHR hits
system.cpu.dcache.ReadReq_mshr_hits::total        22531                       # number of ReadReq MSHR hits
system.cpu.dcache.ReadReq_mshr_misses::.cpu.data        10565                       # number of ReadReq MSHR misses
system.cpu.dcache.ReadReq_mshr_misses::total        10565                       # number of ReadReq MSHR misses
system.cpu.dcache.ReadReq_mshr_miss_latency::.cpu.data    477943600                       # number of ReadReq MSHR miss cycles
system.cpu.dcache.ReadReq_mshr_miss_latency::total    477943600                       # number of ReadReq MSHR miss cycles
system.cpu.dcache.ReadReq_mshr_miss_rate::.cpu.data     0.019748                       # mshr miss rate for ReadReq accesses
system.cpu.dcache.ReadReq_mshr_miss_rate::total     0.019748                       # mshr miss rate for ReadReq accesses
system.cpu.dcache.ReadReq_avg_mshr_miss_latency::.cpu.data 45238.390913                       # average ReadReq mshr miss latency
system.cpu.dcache.ReadReq_avg_mshr_miss_latency::total 45238.390913                       # average ReadReq mshr miss latency
system.cpu.dcache.WriteReq_hits::.cpu.data       170418                       # number of WriteReq hits
system.cpu.dcache.WriteReq_hits::total         170418                       # number of WriteReq hits
system.cpu.dcache.WriteReq_misses::.cpu.data         2138                       # number of WriteReq misses
system.cpu.dcache.WriteReq_misses::total         2138                       # number of WriteReq misses
system.cpu.dcache.WriteReq_miss_latency::.cpu.data    105003599                       # number of WriteReq miss cycles
system.cpu.dcache.WriteReq_miss_latency::total    105003599                       # number of WriteReq miss cycles
system.cpu.dcache.WriteReq_accesses::.cpu.data       172556                       # number of WriteReq accesses(hits+misses)
system.cpu.dcache.WriteReq_accesses::total       172556                       # number of WriteReq accesses(hits+misses)
system.cpu.dcache.WriteReq_miss_rate::.cpu.data     0.012390                       # miss rate for WriteReq accesses
system.cpu.dcache.WriteReq_miss_rate::total     0.012390                       # miss rate for WriteReq accesses
system.cpu.dcache.WriteReq_avg_miss_latency::.cpu.data 49113.002339                       # average WriteReq miss latency
system.cpu.dcache.WriteReq_avg_miss_latency::total 49113.002339                       # average WriteReq miss latency
system.cpu.dcache.WriteReq_mshr_hits::.cpu.data           38                       # number of WriteReq MSHR hits
system.cpu.dcache.WriteReq_mshr_hits::total           38                       # number of WriteReq MSHR hits
system.cpu.dcache.WriteReq_mshr_misses::.cpu.data         2100                       # number of WriteReq MSHR misses
system.cpu.dcache.WriteReq_mshr_misses::total         2100                       # number of WriteReq MSHR misses
system.cpu.dcache.WriteReq_mshr_miss_latency::.cpu.data    101903599                       # number of WriteReq MSHR miss cycles
[...]
system.l2cache.overall_mshr_misses::.cpu.inst          237                       # number of overall MSHR misses
system.l2cache.overall_mshr_misses::.cpu.data          121                       # number of overall MSHR misses
system.l2cache.overall_mshr_misses::.cpu.dcache.prefetcher           38                       # number of overall MSHR misses
system.l2cache.overall_mshr_misses::total          396                       # number of overall MSHR misses
system.l2cache.demand_mshr_miss_latency::.cpu.inst     13898000                       # number of demand (read+write) MSHR miss cycles
system.l2cache.demand_mshr_miss_latency::.cpu.data      7086000                       # number of demand (read+write) MSHR miss cycles
system.l2cache.demand_mshr_miss_latency::.cpu.dcache.prefetcher      2264765                       # number of demand (read+write) MSHR miss cycles
system.l2cache.demand_mshr_miss_latency::total     23248765                       # number of demand (read+write) MSHR miss cycles
system.l2cache.overall_mshr_miss_latency::.cpu.inst     13898000                       # number of overall MSHR miss cycles
system.l2cache.overall_mshr_miss_latency::.cpu.data      7086000                       # number of overall MSHR miss cycles
system.l2cache.overall_mshr_miss_latency::.cpu.dcache.prefetcher      2264765                       # number of overall MSHR miss cycles
system.l2cache.overall_mshr_miss_latency::total     23248765                       # number of overall MSHR miss cycles
system.l2cache.demand_mshr_miss_rate::.cpu.inst     0.509677                       # mshr miss rate for demand accesses
system.l2cache.demand_mshr_miss_rate::.cpu.data     0.523810                       # mshr miss rate for demand accesses
system.l2cache.demand_mshr_miss_rate::.cpu.dcache.prefetcher     0.716981                       # mshr miss rate for demand accesses
system.l2cache.demand_mshr_miss_rate::total     0.528705                       # mshr miss rate for demand accesses
system.l2cache.overall_mshr_miss_rate::.cpu.inst     0.509677                       # mshr miss rate for overall accesses
system.l2cache.overall_mshr_miss_rate::.cpu.data     0.523810                       # mshr miss rate for overall accesses
system.l2cache.overall_mshr_miss_rate::.cpu.dcache.prefetcher     0.716981                       # mshr miss rate for overall accesses
system.l2cache.overall_mshr_miss_rate::total     0.528705                       # mshr miss rate for overall accesses
system.l2cache.demand_avg_mshr_miss_latency::.cpu.inst 58641.350211                       # average overall mshr miss latency
system.l2cache.demand_avg_mshr_miss_latency::.cpu.data 58561.983471                       # average overall mshr miss latency
system.l2cache.demand_avg_mshr_miss_latency::.cpu.dcache.prefetcher 59599.078947                       # average overall mshr miss latency
system.l2cache.demand_avg_mshr_miss_latency::total 58709.002525                       # average overall mshr miss latency
system.l2cache.overall_avg_mshr_miss_latency::.cpu.inst 58641.350211                       # average overall mshr miss latency
system.l2cache.overall_avg_mshr_miss_latency::.cpu.data 58561.983471                       # average overall mshr miss latency
system.l2cache.overall_avg_mshr_miss_latency::.cpu.dcache.prefetcher 59599.078947                       # average overall mshr miss latency
system.l2cache.overall_avg_mshr_miss_latency::total 58709.002525                       # average overall mshr miss latency
system.l2cache.replacements                       405                       # number of replacements
system.l2cache.WritebackDirty_hits::.writebacks           76                       # number of WritebackDirty hits
system.l2cache.WritebackDirty_hits::total           76                       # number of WritebackDirty hits
system.l2cache.WritebackDirty_accesses::.writebacks           76                       # number of WritebackDirty accesses(hits+misses)
system.l2cache.WritebackDirty_accesses::total           76                       # number of WritebackDirty accesses(hits+misses)
system.l2cache.CleanEvict_mshr_misses::.writebacks           13                       # number of CleanEvict MSHR misses
system.l2cache.CleanEvict_mshr_misses::total           13                       # number of CleanEvict MSHR misses
system.l2cache.CleanEvict_mshr_miss_rate::.writebacks          inf                       # mshr miss rate for CleanEvict accesses
system.l2cache.CleanEvict_mshr_miss_rate::total          inf                       # mshr miss rate for CleanEvict accesses
system.l2cache.UpgradeReq_hits::.cpu.data            1                       # number of UpgradeReq hits
system.l2cache.UpgradeReq_hits::total               1                       # number of UpgradeReq hits
system.l2cache.UpgradeReq_accesses::.cpu.data            1                       # number of UpgradeReq accesses(hits+misses)
system.l2cache.UpgradeReq_accesses::total            1                       # number of UpgradeReq accesses(hits+misses)
system.l2cache.ReadExReq_hits::.cpu.data            4                       # number of ReadExReq hits
system.l2cache.ReadExReq_hits::total                4                       # number of ReadExReq hits
system.l2cache.ReadExReq_misses::.cpu.data            7                       # number of ReadExReq misses
system.l2cache.ReadExReq_misses::total              7                       # number of ReadExReq misses
system.l2cache.ReadExReq_miss_latency::.cpu.data       442000                       # number of ReadExReq miss cycles
system.l2cache.ReadExReq_miss_latency::total       442000                       # number of ReadExReq miss cycles
system.l2cache.ReadExReq_accesses::.cpu.data           11                       # number of ReadExReq accesses(hits+misses)
system.l2cache.ReadExReq_accesses::total           11                       # number of ReadExReq accesses(hits+misses)
system.l2cache.ReadExReq_miss_rate::.cpu.data     0.636364                       # miss rate for ReadExReq accesses
system.l2cache.ReadExReq_miss_rate::total     0.636364                       # miss rate for ReadExReq accesses
system.l2cache.ReadExReq_avg_miss_latency::.cpu.data 63142.857143                       # average ReadExReq miss latency
system.l2cache.ReadExReq_avg_miss_latency::total 63142.857143                       # average ReadExReq miss latency
system.l2cache.ReadExReq_mshr_misses::.cpu.data            7                       # number of ReadExReq MSHR misses
system.l2cache.ReadExReq_mshr_misses::total            7                       # number of ReadExReq MSHR misses
system.l2cache.ReadExReq_mshr_miss_latency::.cpu.data       386000                       # number of ReadExReq MSHR miss cycles
system.l2cache.ReadExReq_mshr_miss_latency::total       386000                       # number of ReadExReq MSHR miss cycles
system.l2cache.ReadExReq_mshr_miss_rate::.cpu.data     0.636364                       # mshr miss rate for ReadExReq accesses
system.l2cache.ReadExReq_mshr_miss_rate::total     0.636364                       # mshr miss rate for ReadExReq accesses
system.l2cache.ReadExReq_avg_mshr_miss_latency::.cpu.data 55142.857143                       # average ReadExReq mshr miss latency
system.l2cache.ReadExReq_avg_mshr_miss_latency::total 55142.857143                       # average ReadExReq mshr miss latency
system.l2cache.ReadSharedReq_hits::.cpu.inst          228                       # number of ReadSharedReq hits
system.l2cache.ReadSharedReq_hits::.cpu.data          106                       # number of ReadSharedReq hits
system.l2cache.ReadSharedReq_hits::.cpu.dcache.prefetcher           15                       # number of ReadSharedReq hits
system.l2cache.ReadSharedReq_hits::total          349                       # number of ReadSharedReq hits
system.l2cache.ReadSharedReq_misses::.cpu.inst          237                       # number of ReadSharedReq misses
system.l2cache.ReadSharedReq_misses::.cpu.data          114                       # number of ReadSharedReq misses
system.l2cache.ReadSharedReq_misses::.cpu.dcache.prefetcher           38                       # number of ReadSharedReq misses
system.l2cache.ReadSharedReq_misses::total          389                       # number of ReadSharedReq misses
system.l2cache.ReadSharedReq_miss_latency::.cpu.inst     15786000                       # number of ReadSharedReq miss cycles
system.l2cache.ReadSharedReq_miss_latency::.cpu.data      7612000                       # number of ReadSharedReq miss cycles
system.l2cache.ReadSharedReq_miss_latency::.cpu.dcache.prefetcher      2568765                       # number of ReadSharedReq miss cycles
system.l2cache.ReadSharedReq_miss_latency::total     25966765                       # number of ReadSharedReq miss cycles
system.l2cache.ReadSharedReq_accesses::.cpu.inst          465                       # number of ReadSharedReq accesses(hits+misses)
system.l2cache.ReadSharedReq_accesses::.cpu.data          220                       # number of ReadSharedReq accesses(hits+misses)
system.l2cache.ReadSharedReq_accesses::.cpu.dcache.prefetcher           53                       # number of ReadSharedReq accesses(hits+misses)
system.l2cache.ReadSharedReq_accesses::total          738                       # number of ReadSharedReq accesses(hits+misses)
system.l2cache.ReadSharedReq_miss_rate::.cpu.inst     0.509677                       # miss rate for ReadSharedReq accesses
system.l2cache.ReadSharedReq_miss_rate::.cpu.data     0.518182                       # miss rate for ReadSharedReq accesses
system.l2cache.ReadSharedReq_miss_rate::.cpu.dcache.prefetcher     0.716981                       # miss rate for ReadSharedReq accesses
system.l2cache.ReadSharedReq_miss_rate::total     0.527100                       # miss rate for ReadSharedReq accesses
system.l2cache.ReadSharedReq_avg_miss_latency::.cpu.inst 66607.594937                       # average ReadSharedReq miss latency
system.l2cache.ReadSharedReq_avg_miss_latency::.cpu.data 66771.929825                       # average ReadSharedReq miss latency
system.l2cache.ReadSharedReq_avg_miss_latency::.cpu.dcache.prefetcher 67599.078947                       # average ReadSharedReq miss latency
system.l2cache.ReadSharedReq_avg_miss_latency::total 66752.609254                       # average ReadSharedReq miss latency
system.l2cache.ReadSharedReq_mshr_misses::.cpu.inst          237                       # number of ReadSharedReq MSHR misses
system.l2cache.ReadSharedReq_mshr_misses::.cpu.data          114                       # number of ReadSharedReq MSHR misses
system.l2cache.ReadSharedReq_mshr_misses::.cpu.dcache.prefetcher           38                       # number of ReadSharedReq MSHR misses
system.l2cache.ReadSharedReq_mshr_misses::total          389                       # number of ReadSharedReq MSHR misses
system.l2cache.ReadSharedReq_mshr_miss_latency::.cpu.inst     13898000                       # number of ReadSharedReq MSHR miss cycles
system.l2cache.ReadSharedReq_mshr_miss_latency::.cpu.data      6700000                       # number of ReadSharedReq MSHR miss cycles
system.l2cache.ReadSharedReq_mshr_miss_latency::.cpu.dcache.prefetcher      2264765                       # number of ReadSharedReq MSHR miss cycles
system.l2cache.ReadSharedReq_mshr_miss_latency::total     22862765                       # number of ReadSharedReq MSHR miss cycles
system.l2cache.ReadSharedReq_mshr_miss_rate::.cpu.inst     0.509677                       # mshr miss rate for ReadSharedReq accesses
system.l2cache.ReadSharedReq_mshr_miss_rate::.cpu.data     0.518182                       # mshr miss rate for ReadSharedReq accesses
system.l2cache.ReadSharedReq_mshr_miss_rate::.cpu.dcache.prefetcher     0.716981                       # mshr miss rate for ReadSharedReq accesses
system.l2cache.ReadSharedReq_mshr_miss_rate::total     0.527100                       # mshr miss rate for ReadSharedReq accesses
system.l2cache.ReadSharedReq_avg_mshr_miss_latency::.cpu.inst 58641.350211                       # average ReadSharedReq mshr miss latency
system.l2cache.ReadSharedReq_avg_mshr_miss_latency::.cpu.data 58771.929825                       # average ReadSharedReq mshr miss latency
system.l2cache.ReadSharedReq_avg_mshr_miss_latency::.cpu.dcache.prefetcher 59599.078947                       # average ReadSharedReq mshr miss latency
system.l2cache.ReadSharedReq_avg_mshr_miss_latency::total 58773.174807                       # average ReadSharedReq mshr miss latency
system.l2cache.prefetcher.pwrStateResidencyTicks::UNDEFINED     27216800                       # Cumulative time (in ticks) in various power states
system.l2cache.tags.pwrStateResidencyTicks::UNDEFINED     27216800                       # Cumulative time (in ticks) in various power states
system.l2cache.tags.tagsinuse                    4096                       # Cycle average of tags in use
system.l2cache.tags.total_refs                  14126                       # Total number of references to valid blocks.
system.l2cache.tags.sampled_refs                 4501                       # Sample count of references to valid blocks.
system.l2cache.tags.avg_refs                 3.138414                       # Average number of references to valid blocks.
system.l2cache.tags.warmup_cycle                    0                       # Cycle when the warmup percentage was hit.
system.l2cache.tags.occ_blocks::.writebacks    43.507246                       # Average occupied blocks per requestor
system.l2cache.tags.occ_blocks::.cpu.inst  1128.225718                       # Average occupied blocks per requestor
system.l2cache.tags.occ_blocks::.cpu.data  1870.034991                       # Average occupied blocks per requestor
system.l2cache.tags.occ_blocks::.cpu.dcache.prefetcher   929.674508                       # Average occupied blocks per requestor
system.l2cache.tags.occ_blocks::.l2cache.prefetcher   124.557538                       # Average occupied blocks per requestor
system.l2cache.tags.occ_percent::.writebacks     0.010622                       # Average percentage of cache occupancy
system.l2cache.tags.occ_percent::.cpu.inst     0.275446                       # Average percentage of cache occupancy
system.l2cache.tags.occ_percent::.cpu.data     0.456552                       # Average percentage of cache occupancy
system.l2cache.tags.occ_percent::.cpu.dcache.prefetcher     0.226971                       # Average percentage of cache occupancy
system.l2cache.tags.occ_percent::.l2cache.prefetcher     0.030410                       # Average percentage of cache occupancy
system.l2cache.tags.occ_percent::total              1                       # Average percentage of cache occupancy
system.l2cache.tags.occ_task_id_blocks::1022         1002                       # Occupied blocks per task id
system.l2cache.tags.occ_task_id_blocks::1024         3094                       # Occupied blocks per task id
system.l2cache.tags.age_task_id_blocks_1022::0           12                       # Occupied blocks per task id
system.l2cache.tags.age_task_id_blocks_1022::1          129                       # Occupied blocks per task id
system.l2cache.tags.age_task_id_blocks_1022::2          859                       # Occupied blocks per task id
system.l2cache.tags.age_task_id_blocks_1022::3            2                       # Occupied blocks per task id
system.l2cache.tags.age_task_id_blocks_1024::0          177                       # Occupied blocks per task id
system.l2cache.tags.age_task_id_blocks_1024::1          958                       # Occupied blocks per task id
system.l2cache.tags.age_task_id_blocks_1024::2         1920                       # Occupied blocks per task id
system.l2cache.tags.age_task_id_blocks_1024::3           39                       # Occupied blocks per task id
system.l2cache.tags.occ_task_id_percent::1022     0.244629                       # Percentage of cache occupancy per task id
system.l2cache.tags.occ_task_id_percent::1024     0.755371                       # Percentage of cache occupancy per task id
system.l2cache.tags.tag_accesses                12389                       # Number of tag accesses
system.l2cache.tags.data_accesses               12389                       # Number of data accesses
system.mem_ctrl.pwrStateResidencyTicks::UNDEFINED     27216800                       # Cumulative time (in ticks) in various power states
system.mem_ctrl.bytes_read::.cpu.inst           15104                       # Number of bytes read from this memory
system.mem_ctrl.bytes_read::.cpu.data            7744                       # Number of bytes read from this memory
system.mem_ctrl.bytes_read::.cpu.dcache.prefetcher         2432                       # Number of bytes read from this memory
system.mem_ctrl.bytes_read::total               25280                       # Number of bytes read from this memory
system.mem_ctrl.bytes_inst_read::.cpu.inst        15104                       # Number of instructions bytes read from this memory
system.mem_ctrl.bytes_inst_read::total          15104                       # Number of instructions bytes read from this memory
system.mem_ctrl.bytes_written::.writebacks         1344                       # Number of bytes written to this memory
system.mem_ctrl.bytes_written::total             1344                       # Number of bytes written to this memory
system.mem_ctrl.num_reads::.cpu.inst              236                       # Number of read requests responded to by this memory
system.mem_ctrl.num_reads::.cpu.data              121                       # Number of read requests responded to by this memory
system.mem_ctrl.num_reads::.cpu.dcache.prefetcher           38                       # Number of read requests responded to by this memory
system.mem_ctrl.num_reads::total                  395                       # Number of read requests responded to by this memory
system.mem_ctrl.num_writes::.writebacks            21                       # Number of write requests responded to by this memory
system.mem_ctrl.num_writes::total                  21                       # Number of write requests responded to by this memory
system.mem_ctrl.bw_read::.cpu.inst          554951354                       # Total read bandwidth from this memory (bytes/s)
system.mem_ctrl.bw_read::.cpu.data          284530143                       # Total read bandwidth from this memory (bytes/s)
system.mem_ctrl.bw_read::.cpu.dcache.prefetcher     89356574                       # Total read bandwidth from this memory (bytes/s)
system.mem_ctrl.bw_read::total              928838071                       # Total read bandwidth from this memory (bytes/s)
system.mem_ctrl.bw_inst_read::.cpu.inst     554951354                       # Instruction read bandwidth from this memory (bytes/s)
system.mem_ctrl.bw_inst_read::total         554951354                       # Instruction read bandwidth from this memory (bytes/s)
system.mem_ctrl.bw_write::.writebacks        49381265                       # Write bandwidth from this memory (bytes/s)
system.mem_ctrl.bw_write::total              49381265                       # Write bandwidth from this memory (bytes/s)
system.mem_ctrl.bw_total::.writebacks        49381265                       # Total bandwidth to/from this memory (bytes/s)
system.mem_ctrl.bw_total::.cpu.inst         554951354                       # Total bandwidth to/from this memory (bytes/s)
system.mem_ctrl.bw_total::.cpu.data         284530143                       # Total bandwidth to/from this memory (bytes/s)
system.mem_ctrl.bw_total::.cpu.dcache.prefetcher     89356574                       # Total bandwidth to/from this memory (bytes/s)
system.mem_ctrl.bw_total::total             978219335                       # Total bandwidth to/from this memory (bytes/s)

---------- End Simulation Statistics   ----------
