
---------- Begin Simulation Statistics ----------
final_tick                                 1221530400                       # Number of ticks from beginning of simulation (restored from checkpoints and never reset)
host_inst_rate                                 188892                       # Simulator instruction rate (inst/s)
host_mem_usage                                4406848                       # Number of bytes of host memory used
host_op_rate                                   339884                       # Simulator op (including micro ops) rate (op/s)
host_seconds                                    13.21                       # Real time elapsed on the host
host_tick_rate                               92446433                       # Simulator tick rate (ticks/s)
sim_freq                                 1000000000000                       # Frequency of simulated ticks
sim_insts                                     2495886                       # Number of instructions simulated
sim_ops                                       4491012                       # Number of ops (including micro ops) simulated
sim_seconds                                  0.001222                       # Number of seconds simulated
sim_ticks                                  1221530400                       # Number of ticks simulated
system.cpu.branchPred.BTBCorrect                    0                       # Number of correct BTB predictions (this stat may not work properly.
system.cpu.branchPred.BTBHitPct              0.000000                       # BTB Hit Percentage
system.cpu.branchPred.BTBHits                       0                       # Number of BTB hits
system.cpu.branchPred.BTBLookups               504345                       # Number of BTB lookups
system.cpu.branchPred.RASInCorrect                  6                       # Number of incorrect RAS predictions.
system.cpu.branchPred.condIncorrect             24398                       # Number of conditional branches incorrect
system.cpu.branchPred.condPredicted            531259                       # Number of conditional branches predicted
system.cpu.branchPred.indirectHits             271162                       # Number of indirect target hits.
system.cpu.branchPred.indirectLookups          504345                       # Number of indirect predictor lookups.
system.cpu.branchPred.indirectMisses           233183                       # Number of indirect misses.
system.cpu.branchPred.lookups                  571662                       # Number of BP lookups
system.cpu.branchPred.usedRAS                   18390                       # Number of times the RAS was used to get a target.
system.cpu.branchPredindirectMispredicted        12197                       # Number of mispredicted indirect branches.
system.cpu.cc_regfile_reads                   2857339                       # number of cc regfile reads
system.cpu.cc_regfile_writes                  2188498                       # number of cc regfile writes
system.cpu.commit.amos                              0                       # Number of atomic instructions committed
system.cpu.commit.branchMispredicts             24506                       # The number of times a branch was mispredicted
system.cpu.commit.branches                     425852                       # Number of branches committed
system.cpu.commit.bw_lim_events                751744                       # number cycles where commit BW limit reached
system.cpu.commit.commitNonSpecStalls             760                       # The number of times commit has been forced to stall to communicate backwards
system.cpu.commit.commitSquashedInsts          898640                       # The number of squashed insts skipped by commit
system.cpu.commit.committedInsts              2495886                       # Number of instructions committed
system.cpu.commit.committedOps                4491012                       # Number of ops (including micro ops) committed
system.cpu.commit.committed_per_cycle::samples      2644505                       # Number of insts commited each cycle
system.cpu.commit.committed_per_cycle::mean     1.698243                       # Number of insts commited each cycle
system.cpu.commit.committed_per_cycle::stdev     1.737076                       # Number of insts commited each cycle
system.cpu.commit.committed_per_cycle::underflows            0      0.00%      0.00% # Number of insts commited each cycle
system.cpu.commit.committed_per_cycle::0      1179545     44.60%     44.60% # Number of insts commited each cycle
system.cpu.commit.committed_per_cycle::1       218826      8.27%     52.88% # Number of insts commited each cycle
system.cpu.commit.committed_per_cycle::2       217960      8.24%     61.12% # Number of insts commited each cycle
system.cpu.commit.committed_per_cycle::3       276430     10.45%     71.57% # Number of insts commited each cycle
system.cpu.commit.committed_per_cycle::4       751744     28.43%    100.00% # Number of insts commited each cycle
system.cpu.commit.committed_per_cycle::overflows            0      0.00%    100.00% # Number of insts commited each cycle
system.cpu.commit.committed_per_cycle::min_value            0                       # Number of insts commited each cycle
system.cpu.commit.committed_per_cycle::max_value            4                       # Number of insts commited each cycle
system.cpu.commit.committed_per_cycle::total      2644505                       # Number of insts commited each cycle
system.cpu.commit.fp_insts                     125919                       # Number of committed floating point instructions.
system.cpu.commit.function_calls                16455                       # Number of function calls committed.
system.cpu.commit.int_insts                   4394524                       # Number of committed integer instructions.
system.cpu.commit.loads                        605823                       # Number of loads committed
system.cpu.commit.membars                           1                       # Number of memory barriers committed
system.cpu.commit.op_class_0::No_OpClass        24616      0.55%      0.55% # Class of committed instruction
system.cpu.commit.op_class_0::IntAlu          3482532     77.54%     78.09% # Class of committed instruction
system.cpu.commit.op_class_0::IntMult            3552      0.08%     78.17% # Class of committed instruction
system.cpu.commit.op_class_0::IntDiv            37654      0.84%     79.01% # Class of committed instruction
system.cpu.commit.op_class_0::FloatAdd           4941      0.11%     79.12% # Class of committed instruction
system.cpu.commit.op_class_0::FloatCmp              0      0.00%     79.12% # Class of committed instruction
system.cpu.commit.op_class_0::FloatCvt           1248      0.03%     79.15% # Class of committed instruction
system.cpu.commit.op_class_0::FloatMult             0      0.00%     79.15% # Class of committed instruction
system.cpu.commit.op_class_0::FloatMultAcc            0      0.00%     79.15% # Class of committed instruction
system.cpu.commit.op_class_0::FloatDiv              0      0.00%     79.15% # Class of committed instruction
system.cpu.commit.op_class_0::FloatMisc             0      0.00%     79.15% # Class of committed instruction
system.cpu.commit.op_class_0::FloatSqrt             0      0.00%     79.15% # Class of committed instruction
system.cpu.commit.op_class_0::SimdAdd            6270      0.14%     79.29% # Class of committed instruction
system.cpu.commit.op_class_0::SimdAddAcc            0      0.00%     79.29% # Class of committed instruction
system.cpu.commit.op_class_0::SimdAlu           19556      0.44%     79.72% # Class of committed instruction
system.cpu.commit.op_class_0::SimdCmp               0      0.00%     79.72% # Class of committed instruction
system.cpu.commit.op_class_0::SimdCvt           20446      0.46%     80.18% # Class of committed instruction
system.cpu.commit.op_class_0::SimdMisc          25091      0.56%     80.74% # Class of committed instruction
system.cpu.commit.op_class_0::SimdMult              0      0.00%     80.74% # Class of committed instruction
system.cpu.commit.op_class_0::SimdMultAcc            0      0.00%     80.74% # Class of committed instruction
system.cpu.commit.op_class_0::SimdShift          1316      0.03%     80.77% # Class of committed instruction
system.cpu.commit.op_class_0::SimdShiftAcc            0      0.00%     80.77% # Class of committed instruction
system.cpu.commit.op_class_0::SimdDiv               0      0.00%     80.77% # Class of committed instruction
system.cpu.commit.op_class_0::SimdSqrt              0      0.00%     80.77% # Class of committed instruction
system.cpu.commit.op_class_0::SimdFloatAdd            0      0.00%     80.77% # Class of committed instruction
system.cpu.commit.op_class_0::SimdFloatAlu            0      0.00%     80.77% # Class of committed instruction
system.cpu.commit.op_class_0::SimdFloatCmp            0      0.00%     80.77% # Class of committed instruction
system.cpu.commit.op_class_0::SimdFloatCvt            0      0.00%     80.77% # Class of committed instruction
system.cpu.commit.op_class_0::SimdFloatDiv            0      0.00%     80.77% # Class of committed instruction
system.cpu.commit.op_class_0::SimdFloatMisc            0      0.00%     80.77% # Class of committed instruction
system.cpu.commit.op_class_0::SimdFloatMult            0      0.00%     80.77% # Class of committed instruction
system.cpu.commit.op_class_0::SimdFloatMultAcc            0      0.00%     80.77% # Class of committed instruction
system.cpu.commit.op_class_0::SimdFloatSqrt            0      0.00%     80.77% # Class of committed instruction
system.cpu.commit.op_class_0::SimdReduceAdd            0      0.00%     80.77% # Class of committed instruction
system.cpu.commit.op_class_0::SimdReduceAlu            0      0.00%     80.77% # Class of committed instruction
system.cpu.commit.op_class_0::SimdReduceCmp            0      0.00%     80.77% # Class of committed instruction
system.cpu.commit.op_class_0::SimdFloatReduceAdd            0      0.00%     80.77% # Class of committed instruction
system.cpu.commit.op_class_0::SimdFloatReduceCmp            0      0.00%     80.77% # Class of committed instruction
system.cpu.commit.op_class_0::SimdAes               0      0.00%     80.77% # Class of committed instruction
system.cpu.commit.op_class_0::SimdAesMix            0      0.00%     80.77% # Class of committed instruction
system.cpu.commit.op_class_0::SimdSha1Hash            0      0.00%     80.77% # Class of committed instruction
system.cpu.commit.op_class_0::SimdSha1Hash2            0      0.00%     80.77% # Class of committed instruction
system.cpu.commit.op_class_0::SimdSha256Hash            0      0.00%     80.77% # Class of committed instruction
system.cpu.commit.op_class_0::SimdSha256Hash2            0      0.00%     80.77% # Class of committed instruction
system.cpu.commit.op_class_0::SimdShaSigma2            0      0.00%     80.77% # Class of committed instruction
system.cpu.commit.op_class_0::SimdShaSigma3            0      0.00%     80.77% # Class of committed instruction
system.cpu.commit.op_class_0::SimdPredAlu            0      0.00%     80.77% # Class of committed instruction
system.cpu.commit.op_class_0::MemRead          580297     12.92%     93.69% # Class of committed instruction
system.cpu.commit.op_class_0::MemWrite         243460      5.42%     99.11% # Class of committed instruction
system.cpu.commit.op_class_0::FloatMemRead        25526      0.57%     99.68% # Class of committed instruction
system.cpu.commit.op_class_0::FloatMemWrite        14507      0.32%    100.00% # Class of committed instruction
system.cpu.commit.op_class_0::IprAccess             0      0.00%    100.00% # Class of committed instruction
system.cpu.commit.op_class_0::InstPrefetch            0      0.00%    100.00% # Class of committed instruction
system.cpu.commit.op_class_0::total           4491012                       # Class of committed instruction
system.cpu.commit.refs                         863790                       # Number of memory references committed
system.cpu.commit.swp_count                         0                       # Number of s/w prefetches committed
system.cpu.commit.vec_insts                         0                       # Number of committed Vector instructions.
system.cpu.committedInsts                     2495886                       # Number of Instructions Simulated
system.cpu.committedOps                       4491012                       # Number of Ops (including micro ops) Simulated
system.cpu.cpi                               1.223544                       # CPI: Cycles Per Instruction
system.cpu.cpi_total                         1.223544                       # CPI: Total CPI of All Threads
system.cpu.dcache.prefetcher.num_hwpf_issued         8067                       # number of hwpf issued
system.cpu.dcache.prefetcher.pfBufferHit        33777                       # number of redundant prefetches already in prefetch queue
system.cpu.dcache.prefetcher.pfIdentified        48855                       # number of prefetch candidates identified
system.cpu.dcache.prefetcher.pfInCache              0                       # number of redundant prefetches already in cache/mshr dropped
system.cpu.dcache.prefetcher.pfRemovedFull            0                       # number of prefetches dropped due to prefetch queue size
system.cpu.dcache.prefetcher.pfSpanPage          4525                       # number of prefetches that crossed the page
system.cpu.decode.BlockedCycles               1029541                       # Number of cycles decode is blocked
system.cpu.decode.DecodedInsts                5607763                       # Number of instructions handled by decode
system.cpu.decode.IdleCycles                   357722                       # Number of cycles decode is idle
system.cpu.decode.RunCycles                   1386761                       # Number of cycles decode is running
system.cpu.decode.SquashCycles                  24579                       # Number of cycles decode is squashing
system.cpu.decode.UnblockCycles                 90862                       # Number of cycles decode is unblocking
system.cpu.dtb.rdAccesses                      689393                       # TLB accesses on read requests
system.cpu.dtb.rdMisses                          2045                       # TLB misses on read requests
system.cpu.dtb.wrAccesses                      277480                       # TLB accesses on write requests
system.cpu.dtb.wrMisses                           159                       # TLB misses on write requests
system.cpu.fetch.Branches                      571662                       # Number of branches that fetch encountered
system.cpu.fetch.CacheLines                    294081                       # Number of cache lines fetched
system.cpu.fetch.Cycles                       2478190                       # Number of cycles fetch has run and was not squashing or blocked
system.cpu.fetch.IcacheSquashes                  4703                       # Number of outstanding Icache misses that were squashed
system.cpu.fetch.Insts                        3271186                       # Number of instructions fetch has processed
system.cpu.fetch.MiscStallCycles                  134                       # Number of cycles fetch has spent waiting on interrupts, or bad addresses, or out of MSHRs
system.cpu.fetch.PendingQuiesceStallCycles            6                       # Number of stall cycles due to pending quiesce instructions
system.cpu.fetch.PendingTrapStallCycles           723                       # Number of stall cycles due to pending traps
system.cpu.fetch.SquashCycles                   49158                       # Number of cycles fetch has spent squashing
system.cpu.fetch.branchRate                  0.187195                       # Number of branch fetches per cycle
system.cpu.fetch.icacheStallCycles             385833                       # Number of cycles fetch is stalled on an Icache miss
system.cpu.fetch.predictedBranches             289552                       # Number of branches that fetch has predicted taken
system.cpu.fetch.rate                        1.071176                       # Number of inst fetches per cycle
system.cpu.fetch.rateDist::samples            2889465                       # Number of instructions fetched each cycle (Total)
system.cpu.fetch.rateDist::mean              2.037264                       # Number of instructions fetched each cycle (Total)
system.cpu.fetch.rateDist::stdev             1.926404                       # Number of instructions fetched each cycle (Total)
system.cpu.fetch.rateDist::underflows               0      0.00%      0.00% # Number of instructions fetched each cycle (Total)
system.cpu.fetch.rateDist::0                  1292063     44.72%     44.72% # Number of instructions fetched each cycle (Total)
system.cpu.fetch.rateDist::1                    89180      3.09%     47.80% # Number of instructions fetched each cycle (Total)
system.cpu.fetch.rateDist::2                    71492      2.47%     50.28% # Number of instructions fetched each cycle (Total)
system.cpu.fetch.rateDist::3                    92480      3.20%     53.48% # Number of instructions fetched each cycle (Total)
system.cpu.fetch.rateDist::4                  1344250     46.52%    100.00% # Number of instructions fetched each cycle (Total)
system.cpu.fetch.rateDist::overflows                0      0.00%    100.00% # Number of instructions fetched each cycle (Total)
system.cpu.fetch.rateDist::min_value                0                       # Number of instructions fetched each cycle (Total)
system.cpu.fetch.rateDist::max_value                4                       # Number of instructions fetched each cycle (Total)
system.cpu.fetch.rateDist::total              2889465                       # Number of instructions fetched each cycle (Total)
system.cpu.fp_regfile_reads                    209846                       # number of floating regfile reads
system.cpu.fp_regfile_writes                   113250                       # number of floating regfile writes
system.cpu.fuPool.fu_ticks_busy::IntALU(0)    261188400                       # Total ticks fu was busy
system.cpu.fuPool.fu_ticks_busy::IntALU(1)    261188400                       # Total ticks fu was busy
system.cpu.fuPool.fu_ticks_busy::IntALU(2)    261188400                       # Total ticks fu was busy
system.cpu.fuPool.fu_ticks_busy::IntALU(3)    261188400                       # Total ticks fu was busy
system.cpu.fuPool.fu_ticks_busy::IntALU(4)    261188400                       # Total ticks fu was busy
system.cpu.fuPool.fu_ticks_busy::IntALU(5)    261188400                       # Total ticks fu was busy
system.cpu.fuPool.fu_ticks_busy::IntMultDiv(0)      9014800                       # Total ticks fu was busy
system.cpu.fuPool.fu_ticks_busy::IntMultDiv(1)      9014400                       # Total ticks fu was busy
system.cpu.fuPool.fu_ticks_busy::FP_ALU(0)       793200                       # Total ticks fu was busy
system.cpu.fuPool.fu_ticks_busy::FP_ALU(1)       793200                       # Total ticks fu was busy
system.cpu.fuPool.fu_ticks_busy::FP_ALU(2)       793200                       # Total ticks fu was busy
system.cpu.fuPool.fu_ticks_busy::FP_ALU(3)       793200                       # Total ticks fu was busy
system.cpu.fuPool.fu_ticks_busy::FP_MultDiv(0)            0                       # Total ticks fu was busy
system.cpu.fuPool.fu_ticks_busy::FP_MultDiv(1)            0                       # Total ticks fu was busy
system.cpu.fuPool.fu_ticks_busy::SIMD_Unit(0)      8243600                       # Total ticks fu was busy
system.cpu.fuPool.fu_ticks_busy::SIMD_Unit(1)      8236400                       # Total ticks fu was busy
system.cpu.fuPool.fu_ticks_busy::SIMD_Unit(2)      7874400                       # Total ticks fu was busy
system.cpu.fuPool.fu_ticks_busy::SIMD_Unit(3)      8154000                       # Total ticks fu was busy
system.cpu.fuPool.fu_ticks_busy::PredALU(0)            0                       # Total ticks fu was busy
system.cpu.fuPool.fu_ticks_busy::RdWrPort(0)     97982400                       # Total ticks fu was busy
system.cpu.fuPool.fu_ticks_busy::RdWrPort(1)     98230400                       # Total ticks fu was busy
system.cpu.fuPool.fu_ticks_busy::RdWrPort(2)     98154800                       # Total ticks fu was busy
system.cpu.fuPool.fu_ticks_busy::RdWrPort(3)     98290000                       # Total ticks fu was busy
system.cpu.fuPool.fu_ticks_busy::IprPort(0)            0                       # Total ticks fu was busy
system.cpu.fuPool.fu_ticks_busy::total     2013498400                       # Total ticks fu was busy
system.cpu.icache.prefetcher.num_hwpf_issued            0                       # number of hwpf issued
system.cpu.icache.prefetcher.pfBufferHit            0                       # number of redundant prefetches already in prefetch queue
system.cpu.icache.prefetcher.pfIdentified            0                       # number of prefetch candidates identified
system.cpu.icache.prefetcher.pfInCache              0                       # number of redundant prefetches already in cache/mshr dropped
system.cpu.icache.prefetcher.pfRemovedFull            0                       # number of prefetches dropped due to prefetch queue size
system.cpu.icache.prefetcher.pfSpanPage             0                       # number of prefetches that crossed the page
system.cpu.idleCycles                          164362                       # Total number of cycles that the CPU has spent unscheduled due to idling
system.cpu.iew.branchMispredicts                28933                       # Number of branch mispredicts detected at execute
system.cpu.iew.exec_branches                   456797                       # Number of branches executed
system.cpu.iew.exec_nop                             0                       # number of nop insts executed
system.cpu.iew.exec_rate                     1.647112                       # Inst execution rate
system.cpu.iew.exec_refs                       968673                       # number of memory reference insts executed
system.cpu.iew.exec_stores                     277466                       # Number of stores executed
system.cpu.iew.exec_swp                             0                       # number of swp insts executed
system.cpu.iew.iewBlockCycles                  693150                       # Number of cycles IEW is blocking
system.cpu.iew.iewDispLoadInsts                721868                       # Number of dispatched load instructions
system.cpu.iew.iewDispNonSpecInsts                963                       # Number of dispatched non-speculative instructions
system.cpu.iew.iewDispSquashedInsts               585                       # Number of squashed instructions skipped by dispatch
system.cpu.iew.iewDispStoreInsts               287757                       # Number of dispatched store instructions
system.cpu.iew.iewDispatchedInsts             5389609                       # Number of instructions dispatched to IQ
system.cpu.iew.iewExecLoadInsts                691207                       # Number of load instructions executed
system.cpu.iew.iewExecSquashedInsts             34854                       # Number of squashed instructions skipped in execute
system.cpu.iew.iewExecutedInsts               5029994                       # Number of executed instructions
system.cpu.iew.iewIQFullEvents                   3369                       # Number of times the IQ has become full, causing a stall
system.cpu.iew.iewIdleCycles                        0                       # Number of cycles IEW is idle
system.cpu.iew.iewLSQFullEvents                  9350                       # Number of times the LSQ has become full, causing a stall
system.cpu.iew.iewSquashCycles                  24579                       # Number of cycles IEW is squashing
system.cpu.iew.iewUnblockCycles                 15693                       # Number of cycles IEW is unblocking
system.cpu.iew.lsq.thread0.blockedLoads             0                       # Number of blocked loads due to partial load-store forwarding
system.cpu.iew.lsq.thread0.cacheBlocked           622                       # Number of times an access to memory failed due to the cache being blocked
system.cpu.iew.lsq.thread0.forwLoads            54698                       # Number of loads that had data forwarded from stores
system.cpu.iew.lsq.thread0.ignoredResponses          232                       # Number of memory responses ignored because the instruction is squashed
system.cpu.iew.lsq.thread0.invAddrLoads             0                       # Number of loads ignored due to an invalid address
system.cpu.iew.lsq.thread0.invAddrSwpfs             0                       # Number of software prefetches ignored due to an invalid address
system.cpu.iew.lsq.thread0.memOrderViolation           89                       # Number of memory ordering violations
system.cpu.iew.lsq.thread0.rescheduledLoads           10                       # Number of loads that were rescheduled
system.cpu.iew.lsq.thread0.squashedLoads       116043                       # Number of loads squashed
system.cpu.iew.lsq.thread0.squashedStores        29789                       # Number of stores squashed
system.cpu.iew.memOrderViolationEvents             89                       # Number of memory order violations
system.cpu.iew.predictedNotTakenIncorrect        20838                       # Number of branches that were predicted not taken incorrectly
system.cpu.iew.predictedTakenIncorrect           8095                       # Number of branches that were predicted taken incorrectly
system.cpu.iew.wb_consumers                   6862687                       # num instructions consuming a value
system.cpu.iew.wb_count                       5007991                       # cumulative count of insts written-back
system.cpu.iew.wb_fanout                     0.572167                       # average fanout of values written-back
system.cpu.iew.wb_producers                   3926604                       # num instructions producing a value
system.cpu.iew.wb_rate                       1.639907                       # insts written-back per cycle
system.cpu.iew.wb_sent                        5014906                       # cumulative count of insts sent to commit
system.cpu.int_regfile_reads                  7742492                       # number of integer regfile reads
system.cpu.int_regfile_writes                 4236324                       # number of integer regfile writes
system.cpu.ipc                               0.817298                       # IPC: Instructions Per Cycle
system.cpu.ipc_total                         0.817298                       # IPC: Total IPC of All Threads
system.cpu.iq.FU_type_0::No_OpClass             31102      0.61%      0.61% # Type of FU issued
system.cpu.iq.FU_type_0::IntAlu               3917828     77.35%     77.97% # Type of FU issued
system.cpu.iq.FU_type_0::IntMult                 3592      0.07%     78.04% # Type of FU issued
system.cpu.iq.FU_type_0::IntDiv                 41481      0.82%     78.86% # Type of FU issued
system.cpu.iq.FU_type_0::FloatAdd                6644      0.13%     78.99% # Type of FU issued
system.cpu.iq.FU_type_0::FloatCmp                   0      0.00%     78.99% # Type of FU issued
system.cpu.iq.FU_type_0::FloatCvt                1288      0.03%     79.01% # Type of FU issued
system.cpu.iq.FU_type_0::FloatMult                  0      0.00%     79.01% # Type of FU issued
system.cpu.iq.FU_type_0::FloatMultAcc               0      0.00%     79.01% # Type of FU issued
system.cpu.iq.FU_type_0::FloatDiv                   0      0.00%     79.01% # Type of FU issued
system.cpu.iq.FU_type_0::FloatMisc                  0      0.00%     79.01% # Type of FU issued
system.cpu.iq.FU_type_0::FloatSqrt                  0      0.00%     79.01% # Type of FU issued
system.cpu.iq.FU_type_0::SimdAdd                 7017      0.14%     79.15% # Type of FU issued
system.cpu.iq.FU_type_0::SimdAddAcc                 0      0.00%     79.15% # Type of FU issued
system.cpu.iq.FU_type_0::SimdAlu                23555      0.47%     79.62% # Type of FU issued
system.cpu.iq.FU_type_0::SimdCmp                    0      0.00%     79.62% # Type of FU issued
system.cpu.iq.FU_type_0::SimdCvt                22413      0.44%     80.06% # Type of FU issued
system.cpu.iq.FU_type_0::SimdMisc               25780      0.51%     80.57% # Type of FU issued
system.cpu.iq.FU_type_0::SimdMult                   0      0.00%     80.57% # Type of FU issued
system.cpu.iq.FU_type_0::SimdMultAcc                0      0.00%     80.57% # Type of FU issued
system.cpu.iq.FU_type_0::SimdShift               2506      0.05%     80.62% # Type of FU issued
system.cpu.iq.FU_type_0::SimdShiftAcc               0      0.00%     80.62% # Type of FU issued
system.cpu.iq.FU_type_0::SimdDiv                    0      0.00%     80.62% # Type of FU issued
system.cpu.iq.FU_type_0::SimdSqrt                   0      0.00%     80.62% # Type of FU issued
system.cpu.iq.FU_type_0::SimdFloatAdd               0      0.00%     80.62% # Type of FU issued
system.cpu.iq.FU_type_0::SimdFloatAlu               0      0.00%     80.62% # Type of FU issued
system.cpu.iq.FU_type_0::SimdFloatCmp               0      0.00%     80.62% # Type of FU issued
system.cpu.iq.FU_type_0::SimdFloatCvt               0      0.00%     80.62% # Type of FU issued
system.cpu.iq.FU_type_0::SimdFloatDiv               0      0.00%     80.62% # Type of FU issued
system.cpu.iq.FU_type_0::SimdFloatMisc              0      0.00%     80.62% # Type of FU issued
system.cpu.iq.FU_type_0::SimdFloatMult              0      0.00%     80.62% # Type of FU issued
system.cpu.iq.FU_type_0::SimdFloatMultAcc            0      0.00%     80.62% # Type of FU issued
system.cpu.iq.FU_type_0::SimdFloatSqrt              0      0.00%     80.62% # Type of FU issued
system.cpu.iq.FU_type_0::SimdReduceAdd              0      0.00%     80.62% # Type of FU issued
system.cpu.iq.FU_type_0::SimdReduceAlu              0      0.00%     80.62% # Type of FU issued
system.cpu.iq.FU_type_0::SimdReduceCmp              0      0.00%     80.62% # Type of FU issued
system.cpu.iq.FU_type_0::SimdFloatReduceAdd            0      0.00%     80.62% # Type of FU issued
system.cpu.iq.FU_type_0::SimdFloatReduceCmp            0      0.00%     80.62% # Type of FU issued
system.cpu.iq.FU_type_0::SimdAes                    0      0.00%     80.62% # Type of FU issued
system.cpu.iq.FU_type_0::SimdAesMix                 0      0.00%     80.62% # Type of FU issued
system.cpu.iq.FU_type_0::SimdSha1Hash               0      0.00%     80.62% # Type of FU issued
system.cpu.iq.FU_type_0::SimdSha1Hash2              0      0.00%     80.62% # Type of FU issued
system.cpu.iq.FU_type_0::SimdSha256Hash             0      0.00%     80.62% # Type of FU issued
system.cpu.iq.FU_type_0::SimdSha256Hash2            0      0.00%     80.62% # Type of FU issued
system.cpu.iq.FU_type_0::SimdShaSigma2              0      0.00%     80.62% # Type of FU issued
system.cpu.iq.FU_type_0::SimdShaSigma3              0      0.00%     80.62% # Type of FU issued
system.cpu.iq.FU_type_0::SimdPredAlu                0      0.00%     80.62% # Type of FU issued
system.cpu.iq.FU_type_0::MemRead               669575     13.22%     93.84% # Type of FU issued
system.cpu.iq.FU_type_0::MemWrite              264161      5.22%     99.05% # Type of FU issued
system.cpu.iq.FU_type_0::FloatMemRead           32031      0.63%     99.69% # Type of FU issued
system.cpu.iq.FU_type_0::FloatMemWrite          15879      0.31%    100.00% # Type of FU issued
system.cpu.iq.FU_type_0::IprAccess                  0      0.00%    100.00% # Type of FU issued
system.cpu.iq.FU_type_0::InstPrefetch               0      0.00%    100.00% # Type of FU issued
system.cpu.iq.FU_type_0::total                5064852                       # Type of FU issued
system.cpu.iq.fp_alu_accesses                  144334                       # Number of floating point alu accesses
system.cpu.iq.fp_inst_queue_reads              290126                       # Number of floating instruction queue reads
system.cpu.iq.fp_inst_queue_wakeup_accesses       140665                       # Number of floating instruction queue wakeup accesses
system.cpu.iq.fp_inst_queue_writes             189933                       # Number of floating instruction queue writes
system.cpu.iq.fu_busy_cnt                           0                       # FU busy when requested
system.cpu.iq.fu_busy_rate                          0                       # FU busy rate (busy events/executed inst)
system.cpu.iq.fu_full::No_OpClass                   0                       # attempts to use FU when none available
system.cpu.iq.fu_full::IntAlu                       0                       # attempts to use FU when none available
system.cpu.iq.fu_full::IntMult                      0                       # attempts to use FU when none available
system.cpu.iq.fu_full::IntDiv                       0                       # attempts to use FU when none available
system.cpu.iq.fu_full::FloatAdd                     0                       # attempts to use FU when none available
system.cpu.iq.fu_full::FloatCmp                     0                       # attempts to use FU when none available
system.cpu.iq.fu_full::FloatCvt                     0                       # attempts to use FU when none available
system.cpu.iq.fu_full::FloatMult                    0                       # attempts to use FU when none available
system.cpu.iq.fu_full::FloatMultAcc                 0                       # attempts to use FU when none available
system.cpu.iq.fu_full::FloatDiv                     0                       # attempts to use FU when none available
system.cpu.iq.fu_full::FloatMisc                    0                       # attempts to use FU when none available
system.cpu.iq.fu_full::FloatSqrt                    0                       # attempts to use FU when none available
system.cpu.iq.fu_full::SimdAdd                      0                       # attempts to use FU when none available
system.cpu.iq.fu_full::SimdAddAcc                   0                       # attempts to use FU when none available
system.cpu.iq.fu_full::SimdAlu                      0                       # attempts to use FU when none available
system.cpu.iq.fu_full::SimdCmp                      0                       # attempts to use FU when none available
system.cpu.iq.fu_full::SimdCvt                      0                       # attempts to use FU when none available
system.cpu.iq.fu_full::SimdMisc                     0                       # attempts to use FU when none available
system.cpu.iq.fu_full::SimdMult                     0                       # attempts to use FU when none available
system.cpu.iq.fu_full::SimdMultAcc                  0                       # attempts to use FU when none available
system.cpu.iq.fu_full::SimdShift                    0                       # attempts to use FU when none available
system.cpu.iq.fu_full::SimdShiftAcc                 0                       # attempts to use FU when none available
system.cpu.iq.fu_full::SimdDiv                      0                       # attempts to use FU when none available
system.cpu.iq.fu_full::SimdSqrt                     0                       # attempts to use FU when none available
system.cpu.iq.fu_full::SimdFloatAdd                 0                       # attempts to use FU when none available
system.cpu.iq.fu_full::SimdFloatAlu                 0                       # attempts to use FU when none available
system.cpu.iq.fu_full::SimdFloatCmp                 0                       # attempts to use FU when none available
system.cpu.iq.fu_full::SimdFloatCvt                 0                       # attempts to use FU when none available
system.cpu.iq.fu_full::SimdFloatDiv                 0                       # attempts to use FU when none available
system.cpu.iq.fu_full::SimdFloatMisc                0                       # attempts to use FU when none available
system.cpu.iq.fu_full::SimdFloatMult                0                       # attempts to use FU when none available
system.cpu.iq.fu_full::SimdFloatMultAcc             0                       # attempts to use FU when none available
system.cpu.iq.fu_full::SimdFloatSqrt                0                       # attempts to use FU when none available
system.cpu.iq.fu_full::SimdReduceAdd                0                       # attempts to use FU when none available
system.cpu.iq.fu_full::SimdReduceAlu                0                       # attempts to use FU when none available
system.cpu.iq.fu_full::SimdReduceCmp                0                       # attempts to use FU when none available
system.cpu.iq.fu_full::SimdFloatReduceAdd            0                       # attempts to use FU when none available
system.cpu.iq.fu_full::SimdFloatReduceCmp            0                       # attempts to use FU when none available
system.cpu.iq.fu_full::SimdAes                      0                       # attempts to use FU when none available
system.cpu.iq.fu_full::SimdAesMix                   0                       # attempts to use FU when none available
system.cpu.iq.fu_full::SimdSha1Hash                 0                       # attempts to use FU when none available
system.cpu.iq.fu_full::SimdSha1Hash2                0                       # attempts to use FU when none available
system.cpu.iq.fu_full::SimdSha256Hash               0                       # attempts to use FU when none available
system.cpu.iq.fu_full::SimdSha256Hash2              0                       # attempts to use FU when none available
system.cpu.iq.fu_full::SimdShaSigma2                0                       # attempts to use FU when none available
system.cpu.iq.fu_full::SimdShaSigma3                0                       # attempts to use FU when none available
system.cpu.iq.fu_full::SimdPredAlu                  0                       # attempts to use FU when none available
system.cpu.iq.fu_full::MemRead                      0                       # attempts to use FU when none available
system.cpu.iq.fu_full::MemWrite                     0                       # attempts to use FU when none available
system.cpu.iq.fu_full::FloatMemRead                 0                       # attempts to use FU when none available
system.cpu.iq.fu_full::FloatMemWrite                0                       # attempts to use FU when none available
system.cpu.iq.fu_full::IprAccess                    0                       # attempts to use FU when none available
system.cpu.iq.fu_full::InstPrefetch                 0                       # attempts to use FU when none available
system.cpu.iq.int_alu_accesses                4889416                       # Number of integer alu accesses
system.cpu.iq.int_inst_queue_reads           12747548                       # Number of integer instruction queue reads
system.cpu.iq.int_inst_queue_wakeup_accesses      4867326                       # Number of integer instruction queue wakeup accesses
system.cpu.iq.int_inst_queue_writes           6098350                       # Number of integer instruction queue writes
system.cpu.iq.iqInstsAdded                    5388451                       # Number of instructions added to the IQ (excludes non-spec)
system.cpu.iq.iqInstsIssued                   5064852                       # Number of instructions issued
system.cpu.iq.iqNonSpecInstsAdded                1158                       # Number of non-speculative instructions added to the IQ
system.cpu.iq.iqSquashedInstsExamined          898586                       # Number of squashed instructions iterated over during squash; mainly for profiling
system.cpu.iq.iqSquashedInstsIssued             18509                       # Number of squashed instructions issued
system.cpu.iq.iqSquashedNonSpecRemoved            398                       # Number of squashed non-spec instructions that were removed
system.cpu.iq.iqSquashedOperandsExamined      1336688                       # Number of squashed operands that are examined and possibly removed from graph
system.cpu.iq.issued_per_cycle::samples       2889465                       # Number of insts issued each cycle
system.cpu.iq.issued_per_cycle::mean         1.752868                       # Number of insts issued each cycle
system.cpu.iq.issued_per_cycle::stdev        1.669697                       # Number of insts issued each cycle
system.cpu.iq.issued_per_cycle::underflows            0      0.00%      0.00% # Number of insts issued each cycle
system.cpu.iq.issued_per_cycle::0             1183596     40.96%     40.96% # Number of insts issued each cycle
system.cpu.iq.issued_per_cycle::1              202822      7.02%     47.98% # Number of insts issued each cycle
system.cpu.iq.issued_per_cycle::2              366525     12.68%     60.67% # Number of insts issued each cycle
system.cpu.iq.issued_per_cycle::3              417108     14.44%     75.10% # Number of insts issued each cycle
system.cpu.iq.issued_per_cycle::4              719414     24.90%    100.00% # Number of insts issued each cycle
system.cpu.iq.issued_per_cycle::overflows            0      0.00%    100.00% # Number of insts issued each cycle
system.cpu.iq.issued_per_cycle::min_value            0                       # Number of insts issued each cycle
system.cpu.iq.issued_per_cycle::max_value            4                       # Number of insts issued each cycle
system.cpu.iq.issued_per_cycle::total         2889465                       # Number of insts issued each cycle
system.cpu.iq.rate                           1.658526                       # Inst issue rate
system.cpu.iq.vec_alu_accesses                      0                       # Number of vector alu accesses
system.cpu.iq.vec_inst_queue_reads                  0                       # Number of vector instruction queue reads
system.cpu.iq.vec_inst_queue_wakeup_accesses            0                       # Number of vector instruction queue wakeup accesses
system.cpu.iq.vec_inst_queue_writes                 0                       # Number of vector instruction queue writes
system.cpu.itb.rdAccesses                           0                       # TLB accesses on read requests
system.cpu.itb.rdMisses                             0                       # TLB misses on read requests
system.cpu.itb.wrAccesses                      294208                       # TLB accesses on write requests
system.cpu.itb.wrMisses                           377                       # TLB misses on write requests
system.cpu.memDep0.conflictingLoads             15036                       # Number of conflicting loads.
system.cpu.memDep0.conflictingStores             8032                       # Number of conflicting stores.
system.cpu.memDep0.insertedLoads               721868                       # Number of loads inserted to the mem dependence unit.
system.cpu.memDep0.insertedStores              287757                       # Number of stores inserted to the mem dependence unit.
system.cpu.misc_regfile_reads                 1924843                       # number of misc regfile reads
system.cpu.misc_regfile_writes                    702                       # number of misc regfile writes
system.cpu.numCycles                          3053827                       # number of cpu cycles simulated
system.cpu.numWorkItemsCompleted                    0                       # number of work items this cpu completed
system.cpu.numWorkItemsStarted                      0                       # number of work items this cpu started
system.cpu.process.numSyscalls                     57                       # Number of system calls
system.cpu.rename.BlockCycles                  839084                       # Number of cycles rename is blocking
system.cpu.rename.CommittedMaps               5905576                       # Number of HB maps that are committed
system.cpu.rename.FullRegisterEvents              168                       # Number of times there has been no free registers
system.cpu.rename.IQFullEvents                  49247                       # Number of times rename has blocked due to IQ full
system.cpu.rename.IdleCycles                   409166                       # Number of cycles rename is idle
system.cpu.rename.LQFullEvents                  16936                       # Number of times rename has blocked due to LQ full
system.cpu.rename.ROBFullEvents                  4187                       # Number of times rename has blocked due to ROB full
system.cpu.rename.RenameLookups              14389583                       # Number of register rename lookups that rename has made
system.cpu.rename.RenamedInsts                5532418                       # Number of instructions processed by rename
system.cpu.rename.RenamedOperands             7319481                       # Number of destination operands rename has renamed
system.cpu.rename.RunCycles                   1417573                       # Number of cycles rename is running
system.cpu.rename.SQFullEvents                  74701                       # Number of times rename has blocked due to SQ full
system.cpu.rename.SquashCycles                  24579                       # Number of cycles rename is squashing
system.cpu.rename.UnblockCycles                178776                       # Number of cycles rename is unblocking
system.cpu.rename.UndoneMaps                  1413879                       # Number of HB maps that are undone due to squashing
system.cpu.rename.fp_rename_lookups            248567                       # Number of floating rename lookups
system.cpu.rename.int_rename_lookups          8698270                       # Number of integer rename lookups
system.cpu.rename.serializeStallCycles          20287                       # count of cycles rename stalled for serializing inst
system.cpu.rename.serializingInsts                899                       # count of serializing insts renamed
system.cpu.rename.skidInsts                    213472                       # count of insts added to the skid buffer
system.cpu.rename.tempSerializingInsts            954                       # count of temporary serializing insts renamed
system.cpu.rob.rob_reads                      7282413                       # The number of ROB reads
system.cpu.rob.rob_writes                    11025162                       # The number of ROB writes
system.cpu.timesIdled                            1636                       # Number of times that the entire CPU went into an idle state and unscheduled itself
system.l2bus.snoop_filter.hit_multi_requests           12                       # Number of requests hitting in the snoop filter with multiple (>1) holders of the requested data.
system.l2bus.snoop_filter.hit_multi_snoops            1                       # Number of snoops hitting in the snoop filter with multiple (>1) holders of the requested data.
system.l2bus.snoop_filter.hit_single_requests        18596                       # Number of requests hitting in the snoop filter with a single holder of the requested data.
system.l2bus.snoop_filter.hit_single_snoops          441                       # Number of snoops hitting in the snoop filter with a single holder of the requested data.
system.l2bus.snoop_filter.tot_requests          38472                       # Total number of requests made to the snoop filter.
system.l2bus.snoop_filter.tot_snoops              442                       # Total number of snoops made to the snoop filter.
system.l2cache.prefetcher.num_hwpf_issued          723                       # number of hwpf issued
system.l2cache.prefetcher.pfBufferHit               0                       # number of redundant prefetches already in prefetch queue
system.l2cache.prefetcher.pfIdentified            723                       # number of prefetch candidates identified
system.l2cache.prefetcher.pfInCache                 0                       # number of redundant prefetches already in cache/mshr dropped
system.l2cache.prefetcher.pfRemovedFull             0                       # number of prefetches dropped due to prefetch queue size
system.l2cache.prefetcher.pfSpanPage              133                       # number of prefetches that crossed the page
system.membus.snoop_filter.hit_multi_requests            0                       # Number of requests hitting in the snoop filter with multiple (>1) holders of the requested data.
system.membus.snoop_filter.hit_multi_snoops            0                       # Number of snoops hitting in the snoop filter with multiple (>1) holders of the requested data.
system.membus.snoop_filter.hit_single_requests         9494                       # Number of requests hitting in the snoop filter with a single holder of the requested data.
system.membus.snoop_filter.hit_single_snoops            0                       # Number of snoops hitting in the snoop filter with a single holder of the requested data.
system.membus.snoop_filter.tot_requests         23107                       # Total number of requests made to the snoop filter.
system.membus.snoop_filter.tot_snoops               0                       # Total number of snoops made to the snoop filter.
system.membus.pwrStateResidencyTicks::UNDEFINED   1221530400                       # Cumulative time (in ticks) in various power states
system.membus.trans_dist::ReadResp              12241                       # Transaction distribution
system.membus.trans_dist::WritebackDirty         1351                       # Transaction distribution
system.membus.trans_dist::CleanEvict             8143                       # Transaction distribution
system.membus.trans_dist::ReadExReq              1372                       # Transaction distribution
system.membus.trans_dist::ReadExResp             1372                       # Transaction distribution
system.membus.trans_dist::ReadSharedReq         12241                       # Transaction distribution
system.membus.pkt_count_system.l2cache.mem_side::system.mem_ctrl.port        36720                       # Packet count per connected master and slave (bytes)
system.membus.pkt_count_system.l2cache.mem_side::total        36720                       # Packet count per connected master and slave (bytes)
system.membus.pkt_count::total                  36720                       # Packet count per connected master and slave (bytes)
system.membus.pkt_size_system.l2cache.mem_side::system.mem_ctrl.port       957696                       # Cumulative packet size per connected master and slave (bytes)
system.membus.pkt_size_system.l2cache.mem_side::total       957696                       # Cumulative packet size per connected master and slave (bytes)
system.membus.pkt_size::total                  957696                       # Cumulative packet size per connected master and slave (bytes)
system.membus.snoops                                0                       # Total snoops (count)
system.membus.snoopTraffic                          0                       # Total snoop traffic (bytes)
system.membus.snoop_fanout::samples             13613                       # Request fanout histogram
system.membus.snoop_fanout::mean                    0                       # Request fanout histogram
system.membus.snoop_fanout::stdev                   0                       # Request fanout histogram
system.membus.snoop_fanout::underflows              0      0.00%      0.00% # Request fanout histogram
system.membus.snoop_fanout::0                   13613    100.00%    100.00% # Request fanout histogram
system.membus.snoop_fanout::1                       0      0.00%    100.00% # Request fanout histogram
system.membus.snoop_fanout::overflows               0      0.00%    100.00% # Request fanout histogram
system.membus.snoop_fanout::min_value               0                       # Request fanout histogram
system.membus.snoop_fanout::max_value               0                       # Request fanout histogram
system.membus.snoop_fanout::total               13613                       # Request fanout histogram
system.membus.reqLayer2.occupancy            11433786                       # Layer occupancy (ticks)
system.membus.reqLayer2.utilization               0.9                       # Layer utilization (%)
system.membus.respLayer0.occupancy           29545914                       # Layer occupancy (ticks)
system.membus.respLayer0.utilization              2.4                       # Layer utilization (%)
system.l2bus.pwrStateResidencyTicks::UNDEFINED   1221530400                       # Cumulative time (in ticks) in various power states
system.l2bus.trans_dist::ReadResp               17745                       # Transaction distribution
system.l2bus.trans_dist::WritebackDirty          4163                       # Transaction distribution
system.l2bus.trans_dist::CleanEvict             24017                       # Transaction distribution
system.l2bus.trans_dist::HardPFReq               1002                       # Transaction distribution
system.l2bus.trans_dist::ReadExReq               2131                       # Transaction distribution
system.l2bus.trans_dist::ReadExResp              2131                       # Transaction distribution
system.l2bus.trans_dist::ReadSharedReq          17745                       # Transaction distribution
system.l2bus.pkt_count_system.cpu.icache.mem_side::system.l2cache.cpu_side         8559                       # Packet count per connected master and slave (bytes)
system.l2bus.pkt_count_system.cpu.dcache.mem_side::system.l2cache.cpu_side        49787                       # Packet count per connected master and slave (bytes)
system.l2bus.pkt_count::total                   58346                       # Packet count per connected master and slave (bytes)
system.l2bus.pkt_size_system.cpu.icache.mem_side::system.l2cache.cpu_side       187968                       # Cumulative packet size per connected master and slave (bytes)
system.l2bus.pkt_size_system.cpu.dcache.mem_side::system.l2cache.cpu_side      1263936                       # Cumulative packet size per connected master and slave (bytes)
system.l2bus.pkt_size::total                  1451904                       # Cumulative packet size per connected master and slave (bytes)
system.l2bus.snoops                             10588                       # Total snoops (count)
system.l2bus.snoopTraffic                       86592                       # Total snoop traffic (bytes)
system.l2bus.snoop_fanout::samples              30462                       # Request fanout histogram
system.l2bus.snoop_fanout::mean              0.014937                       # Request fanout histogram
system.l2bus.snoop_fanout::stdev             0.121572                       # Request fanout histogram
system.l2bus.snoop_fanout::underflows               0      0.00%      0.00% # Request fanout histogram
system.l2bus.snoop_fanout::0                    30008     98.51%     98.51% # Request fanout histogram
system.l2bus.snoop_fanout::1                      453      1.49%    100.00% # Request fanout histogram
system.l2bus.snoop_fanout::2                        1      0.00%    100.00% # Request fanout histogram
system.l2bus.snoop_fanout::overflows                0      0.00%    100.00% # Request fanout histogram
system.l2bus.snoop_fanout::min_value                0                       # Request fanout histogram
system.l2bus.snoop_fanout::max_value                2                       # Request fanout histogram
system.l2bus.snoop_fanout::total                30462                       # Request fanout histogram
system.l2bus.respLayer1.occupancy            20325597                       # Layer occupancy (ticks)
system.l2bus.respLayer1.utilization               1.7                       # Layer utilization (%)
system.l2bus.reqLayer0.occupancy             19044721                       # Layer occupancy (ticks)
system.l2bus.reqLayer0.utilization                1.6                       # Layer utilization (%)
system.l2bus.respLayer0.occupancy             3527997                       # Layer occupancy (ticks)
system.l2bus.respLayer0.utilization               0.3                       # Layer utilization (%)
system.clk_domain.clock                           400                       # Clock period in ticks
system.clk_domain.voltage_domain.voltage            1                       # Voltage in Volts
system.cpu.pwrStateResidencyTicks::ON      1221530400                       # Cumulative time (in ticks) in various power states
system.cpu.icache.pwrStateResidencyTicks::UNDEFINED   1221530400                       # Cumulative time (in ticks) in various power states
system.cpu.icache.demand_hits::.cpu.inst       290412                       # number of demand (read+write) hits
system.cpu.icache.demand_hits::total           290412                       # number of demand (read+write) hits
system.cpu.icache.overall_hits::.cpu.inst       290412                       # number of overall hits
system.cpu.icache.overall_hits::total          290412                       # number of overall hits
system.cpu.icache.demand_misses::.cpu.inst         3668                       # number of demand (read+write) misses
system.cpu.icache.demand_misses::total           3668                       # number of demand (read+write) misses
system.cpu.icache.overall_misses::.cpu.inst         3668                       # number of overall misses
system.cpu.icache.overall_misses::total          3668                       # number of overall misses
system.cpu.icache.demand_miss_latency::.cpu.inst    180349600                       # number of demand (read+write) miss cycles
system.cpu.icache.demand_miss_latency::total    180349600                       # number of demand (read+write) miss cycles
system.cpu.icache.overall_miss_latency::.cpu.inst    180349600                       # number of overall miss cycles
system.cpu.icache.overall_miss_latency::total    180349600                       # number of overall miss cycles
system.cpu.icache.demand_accesses::.cpu.inst       294080                       # number of demand (read+write) accesses
system.cpu.icache.demand_accesses::total       294080                       # number of demand (read+write) accesses
system.cpu.icache.overall_accesses::.cpu.inst       294080                       # number of overall (read+write) accesses
system.cpu.icache.overall_accesses::total       294080                       # number of overall (read+write) accesses
system.cpu.icache.demand_miss_rate::.cpu.inst     0.012473                       # miss rate for demand accesses
system.cpu.icache.demand_miss_rate::total     0.012473                       # miss rate for demand accesses
system.cpu.icache.overall_miss_rate::.cpu.inst     0.012473                       # miss rate for overall accesses
system.cpu.icache.overall_miss_rate::total     0.012473                       # miss rate for overall accesses
system.cpu.icache.demand_avg_miss_latency::.cpu.inst 49168.375136                       # average overall miss latency
system.cpu.icache.demand_avg_miss_latency::total 49168.375136                       # average overall miss latency
system.cpu.icache.overall_avg_miss_latency::.cpu.inst 49168.375136                       # average overall miss latency
system.cpu.icache.overall_avg_miss_latency::total 49168.375136                       # average overall miss latency
system.cpu.icache.blocked_cycles::no_mshrs           39                       # number of cycles access was blocked
system.cpu.icache.blocked_cycles::no_targets            0                       # number of cycles access was blocked
system.cpu.icache.blocked::no_mshrs                 2                       # number of cycles access was blocked
system.cpu.icache.blocked::no_targets               0                       # number of cycles access was blocked
system.cpu.icache.avg_blocked_cycles::no_mshrs    19.500000                       # average number of cycles each access was blocked
system.cpu.icache.avg_blocked_cycles::no_targets          nan                       # average number of cycles each access was blocked
system.cpu.icache.demand_mshr_hits::.cpu.inst          729                       # number of demand (read+write) MSHR hits
system.cpu.icache.demand_mshr_hits::total          729                       # number of demand (read+write) MSHR hits
system.cpu.icache.overall_mshr_hits::.cpu.inst          729                       # number of overall MSHR hits
system.cpu.icache.overall_mshr_hits::total          729                       # number of overall MSHR hits
system.cpu.icache.demand_mshr_misses::.cpu.inst         2939                       # number of demand (read+write) MSHR misses
system.cpu.icache.demand_mshr_misses::total         2939                       # number of demand (read+write) MSHR misses
system.cpu.icache.overall_mshr_misses::.cpu.inst         2939                       # number of overall MSHR misses
system.cpu.icache.overall_mshr_misses::total         2939                       # number of overall MSHR misses
system.cpu.icache.demand_mshr_miss_latency::.cpu.inst    145420800                       # number of demand (read+write) MSHR miss cycles
system.cpu.icache.demand_mshr_miss_latency::total    145420800                       # number of demand (read+write) MSHR miss cycles
system.cpu.icache.overall_mshr_miss_latency::.cpu.inst    145420800                       # number of overall MSHR miss cycles
system.cpu.icache.overall_mshr_miss_latency::total    145420800                       # number of overall MSHR miss cycles
system.cpu.icache.demand_mshr_miss_rate::.cpu.inst     0.009994                       # mshr miss rate for demand accesses
system.cpu.icache.demand_mshr_miss_rate::total     0.009994                       # mshr miss rate for demand accesses
system.cpu.icache.overall_mshr_miss_rate::.cpu.inst     0.009994                       # mshr miss rate for overall accesses
system.cpu.icache.overall_mshr_miss_rate::total     0.009994                       # mshr miss rate for overall accesses
system.cpu.icache.demand_avg_mshr_miss_latency::.cpu.inst 49479.686968                       # average overall mshr miss latency
system.cpu.icache.demand_avg_mshr_miss_latency::total 49479.686968                       # average overall mshr miss latency
system.cpu.icache.overall_avg_mshr_miss_latency::.cpu.inst 49479.686968                       # average overall mshr miss latency
system.cpu.icache.overall_avg_mshr_miss_latency::total 49479.686968                       # average overall mshr miss latency
system.cpu.icache.replacements                   2683                       # number of replacements
system.cpu.icache.ReadReq_hits::.cpu.inst       290412                       # number of ReadReq hits
system.cpu.icache.ReadReq_hits::total          290412                       # number of ReadReq hits
system.cpu.icache.ReadReq_misses::.cpu.inst         3668                       # number of ReadReq misses
system.cpu.icache.ReadReq_misses::total          3668                       # number of ReadReq misses
system.cpu.icache.ReadReq_miss_latency::.cpu.inst    180349600                       # number of ReadReq miss cycles
system.cpu.icache.ReadReq_miss_latency::total    180349600                       # number of ReadReq miss cycles
system.cpu.icache.ReadReq_accesses::.cpu.inst       294080                       # number of ReadReq accesses(hits+misses)
system.cpu.icache.ReadReq_accesses::total       294080                       # number of ReadReq accesses(hits+misses)
system.cpu.icache.ReadReq_miss_rate::.cpu.inst     0.012473                       # miss rate for ReadReq accesses
system.cpu.icache.ReadReq_miss_rate::total     0.012473                       # miss rate for ReadReq accesses
system.cpu.icache.ReadReq_avg_miss_latency::.cpu.inst 49168.375136                       # average ReadReq miss latency
system.cpu.icache.ReadReq_avg_miss_latency::total 49168.375136                       # average ReadReq miss latency
system.cpu.icache.ReadReq_mshr_hits::.cpu.inst          729                       # number of ReadReq MSHR hits
system.cpu.icache.ReadReq_mshr_hits::total          729                       # number of ReadReq MSHR hits
system.cpu.icache.ReadReq_mshr_misses::.cpu.inst         2939                       # number of ReadReq MSHR misses
system.cpu.icache.ReadReq_mshr_misses::total         2939                       # number of ReadReq MSHR misses
system.cpu.icache.ReadReq_mshr_miss_latency::.cpu.inst    145420800                       # number of ReadReq MSHR miss cycles
system.cpu.icache.ReadReq_mshr_miss_latency::total    145420800                       # number of ReadReq MSHR miss cycles
system.cpu.icache.ReadReq_mshr_miss_rate::.cpu.inst     0.009994                       # mshr miss rate for ReadReq accesses
system.cpu.icache.ReadReq_mshr_miss_rate::total     0.009994                       # mshr miss rate for ReadReq accesses
system.cpu.icache.ReadReq_avg_mshr_miss_latency::.cpu.inst 49479.686968                       # average ReadReq mshr miss latency
system.cpu.icache.ReadReq_avg_mshr_miss_latency::total 49479.686968                       # average ReadReq mshr miss latency
system.cpu.icache.prefetcher.pwrStateResidencyTicks::UNDEFINED   1221530400                       # Cumulative time (in ticks) in various power states
system.cpu.icache.tags.pwrStateResidencyTicks::UNDEFINED   1221530400                       # Cumulative time (in ticks) in various power states
system.cpu.icache.tags.tagsinuse           253.735442                       # Cycle average of tags in use
system.cpu.icache.tags.total_refs              265535                       # Total number of references to valid blocks.
system.cpu.icache.tags.sampled_refs              2683                       # Sample count of references to valid blocks.
system.cpu.icache.tags.avg_refs             98.969437                       # Average number of references to valid blocks.
system.cpu.icache.tags.warmup_cycle             66400                       # Cycle when the warmup percentage was hit.
system.cpu.icache.tags.occ_blocks::.cpu.inst   253.735442                       # Average occupied blocks per requestor
system.cpu.icache.tags.occ_percent::.cpu.inst     0.991154                       # Average percentage of cache occupancy
system.cpu.icache.tags.occ_percent::total     0.991154                       # Average percentage of cache occupancy
system.cpu.icache.tags.occ_task_id_blocks::1024          256                       # Occupied blocks per task id
system.cpu.icache.tags.age_task_id_blocks_1024::0          108                       # Occupied blocks per task id
system.cpu.icache.tags.age_task_id_blocks_1024::1            3                       # Occupied blocks per task id
system.cpu.icache.tags.age_task_id_blocks_1024::2          144                       # Occupied blocks per task id
system.cpu.icache.tags.age_task_id_blocks_1024::3            1                       # Occupied blocks per task id
system.cpu.icache.tags.occ_task_id_percent::1024            1                       # Percentage of cache occupancy per task id
system.cpu.icache.tags.tag_accesses            591099                       # Number of tag accesses
system.cpu.icache.tags.data_accesses           591099                       # Number of data accesses
system.cpu.dtb.walker.pwrStateResidencyTicks::UNDEFINED   1221530400                       # Cumulative time (in ticks) in various power states
system.cpu.interrupts.clk_domain.clock           6400                       # Clock period in ticks
system.cpu.itb.walker.pwrStateResidencyTicks::UNDEFINED   1221530400                       # Cumulative time (in ticks) in various power states
system.cpu.dcache.pwrStateResidencyTicks::UNDEFINED   1221530400                       # Cumulative time (in ticks) in various power states
system.cpu.dcache.demand_hits::.cpu.data       856720                       # number of demand (read+write) hits
system.cpu.dcache.demand_hits::total           856720                       # number of demand (read+write) hits
system.cpu.dcache.overall_hits::.cpu.data       856720                       # number of overall hits
system.cpu.dcache.overall_hits::total          856720                       # number of overall hits
system.cpu.dcache.demand_misses::.cpu.data        34797                       # number of demand (read+write) misses
system.cpu.dcache.demand_misses::total          34797                       # number of demand (read+write) misses
system.cpu.dcache.overall_misses::.cpu.data        34797                       # number of overall misses
system.cpu.dcache.overall_misses::total         34797                       # number of overall misses
system.cpu.dcache.demand_miss_latency::.cpu.data   1681434400                       # number of demand (read+write) miss cycles
system.cpu.dcache.demand_miss_latency::total   1681434400                       # number of demand (read+write) miss cycles
system.cpu.dcache.overall_miss_latency::.cpu.data   1681434400                       # number of overall miss cycles
system.cpu.dcache.overall_miss_latency::total   1681434400                       # number of overall miss cycles
system.cpu.dcache.demand_accesses::.cpu.data       891517                       # number of demand (read+write) accesses
system.cpu.dcache.demand_accesses::total       891517                       # number of demand (read+write) accesses
system.cpu.dcache.overall_accesses::.cpu.data       891517                       # number of overall (read+write) accesses
system.cpu.dcache.overall_accesses::total       891517                       # number of overall (read+write) accesses
system.cpu.dcache.demand_miss_rate::.cpu.data     0.039031                       # miss rate for demand accesses
system.cpu.dcache.demand_miss_rate::total     0.039031                       # miss rate for demand accesses
system.cpu.dcache.overall_miss_rate::.cpu.data     0.039031                       # miss rate for overall accesses
system.cpu.dcache.overall_miss_rate::total     0.039031                       # miss rate for overall accesses
system.cpu.dcache.demand_avg_miss_latency::.cpu.data 48321.246084                       # average overall miss latency
system.cpu.dcache.demand_avg_miss_latency::total 48321.246084                       # average overall miss latency
system.cpu.dcache.overall_avg_miss_latency::.cpu.data 48321.246084                       # average overall miss latency
system.cpu.dcache.overall_avg_miss_latency::total 48321.246084                       # average overall miss latency
system.cpu.dcache.blocked_cycles::no_mshrs        29312                       # number of cycles access was blocked
system.cpu.dcache.blocked_cycles::no_targets          138                       # number of cycles access was blocked
system.cpu.dcache.blocked::no_mshrs               770                       # number of cycles access was blocked
system.cpu.dcache.blocked::no_targets               1                       # number of cycles access was blocked
system.cpu.dcache.avg_blocked_cycles::no_mshrs    38.067532                       # average number of cycles each access was blocked
system.cpu.dcache.avg_blocked_cycles::no_targets          138                       # average number of cycles each access was blocked
system.cpu.dcache.unused_prefetches              1727                       # number of HardPF blocks evicted w/o reference
system.cpu.dcache.writebacks::.writebacks         2812                       # number of writebacks
system.cpu.dcache.writebacks::total              2812                       # number of writebacks
system.cpu.dcache.demand_mshr_hits::.cpu.data        22162                       # number of demand (read+write) MSHR hits
system.cpu.dcache.demand_mshr_hits::total        22162                       # number of demand (read+write) MSHR hits
system.cpu.dcache.overall_mshr_hits::.cpu.data        22162                       # number of overall MSHR hits
system.cpu.dcache.overall_mshr_hits::total        22162                       # number of overall MSHR hits
system.cpu.dcache.demand_mshr_misses::.cpu.data        12635                       # number of demand (read+write) MSHR misses
system.cpu.dcache.demand_mshr_misses::total        12635                       # number of demand (read+write) MSHR misses
system.cpu.dcache.overall_mshr_misses::.cpu.data        12635                       # number of overall MSHR misses
system.cpu.dcache.overall_mshr_misses::.cpu.dcache.prefetcher         4302                       # number of overall MSHR misses
system.cpu.dcache.overall_mshr_misses::total        16937                       # number of overall MSHR misses
system.cpu.dcache.demand_mshr_miss_latency::.cpu.data    577624800                       # number of demand (read+write) MSHR miss cycles
system.cpu.dcache.demand_mshr_miss_latency::total    577624800                       # number of demand (read+write) MSHR miss cycles
system.cpu.dcache.overall_mshr_miss_latency::.cpu.data    577624800                       # number of overall MSHR miss cycles
system.cpu.dcache.overall_mshr_miss_latency::.cpu.dcache.prefetcher    248691790                       # number of overall MSHR miss cycles
system.cpu.dcache.overall_mshr_miss_latency::total    826316590                       # number of overall MSHR miss cycles
system.cpu.dcache.demand_mshr_miss_rate::.cpu.data     0.014172                       # mshr miss rate for demand accesses
system.cpu.dcache.demand_mshr_miss_rate::total     0.014172                       # mshr miss rate for demand accesses
system.cpu.dcache.overall_mshr_miss_rate::.cpu.data     0.014172                       # mshr miss rate for overall accesses
system.cpu.dcache.overall_mshr_miss_rate::.cpu.dcache.prefetcher          inf                       # mshr miss rate for overall accesses
system.cpu.dcache.overall_mshr_miss_rate::total     0.018998                       # mshr miss rate for overall accesses
system.cpu.dcache.demand_avg_mshr_miss_latency::.cpu.data 45716.248516                       # average overall mshr miss latency
system.cpu.dcache.demand_avg_mshr_miss_latency::total 45716.248516                       # average overall mshr miss latency
system.cpu.dcache.overall_avg_mshr_miss_latency::.cpu.data 45716.248516                       # average overall mshr miss latency
system.cpu.dcache.overall_avg_mshr_miss_latency::.cpu.dcache.prefetcher 57808.412366                       # average overall mshr miss latency
system.cpu.dcache.overall_avg_mshr_miss_latency::total 48787.659562                       # average overall mshr miss latency
system.cpu.dcache.replacements                  15913                       # number of replacements
system.cpu.dcache.ReadReq_hits::.cpu.data       600914                       # number of ReadReq hits
system.cpu.dcache.ReadReq_hits::total          600914                       # number of ReadReq hits
system.cpu.dcache.ReadReq_misses::.cpu.data        32628                       # number of ReadReq misses
system.cpu.dcache.ReadReq_misses::total         32628                       # number of ReadReq misses
system.cpu.dcache.ReadReq_miss_latency::.cpu.data   1574313600                       # number of ReadReq miss cycles
system.cpu.dcache.ReadReq_miss_latency::total   1574313600                       # number of ReadReq miss cycles
system.cpu.dcache.ReadReq_accesses::.cpu.data       633542                       # number of ReadReq accesses(hits+misses)
system.cpu.dcache.ReadReq_accesses::total       633542                       # number of ReadReq accesses(hits+misses)
system.cpu.dcache.ReadReq_miss_rate::.cpu.data     0.051501                       # miss rate for ReadReq accesses
system.cpu.dcache.ReadReq_miss_rate::total     0.051501                       # miss rate for ReadReq accesses
system.cpu.dcache.ReadReq_avg_miss_latency::.cpu.data 48250.386171                       # average ReadReq miss latency
system.cpu.dcache.ReadReq_avg_miss_latency::total 48250.386171                       # average ReadReq miss latency
system.cpu.dcache.ReadReq_mshr_hits::.cpu.data        22122                       # number of ReadReq MSHR hits
system.cpu.dcache.ReadReq_mshr_hits::total        22122                       # number of ReadReq MSHR hits
system.cpu.dcache.ReadReq_mshr_misses::.cpu.data        10506                       # number of ReadReq MSHR misses
system.cpu.dcache.ReadReq_mshr_misses::total        10506                       # number of ReadReq MSHR misses
system.cpu.dcache.ReadReq_mshr_miss_latency::.cpu.data    473740800                       # number of ReadReq MSHR miss cycles
system.cpu.dcache.ReadReq_mshr_miss_latency::total    473740800                       # number of ReadReq MSHR miss cycles
system.cpu.dcache.ReadReq_mshr_miss_rate::.cpu.data     0.016583                       # mshr miss rate for ReadReq accesses
system.cpu.dcache.ReadReq_mshr_miss_rate::total     0.016583                       # mshr miss rate for ReadReq accesses
system.cpu.dcache.ReadReq_avg_mshr_miss_latency::.cpu.data 45092.404340                       # average ReadReq mshr miss latency
system.cpu.dcache.ReadReq_avg_mshr_miss_latency::total 45092.404340                       # average ReadReq mshr miss latency
system.cpu.dcache.WriteReq_hits::.cpu.data       255806                       # number of WriteReq hits
system.cpu.dcache.WriteReq_hits::total         255806                       # number of WriteReq hits
system.cpu.dcache.WriteReq_misses::.cpu.data         2169                       # number of WriteReq misses
system.cpu.dcache.WriteReq_misses::total         2169                       # number of WriteReq misses
system.cpu.dcache.WriteReq_miss_latency::.cpu.data    107120800                       # number of WriteReq miss cycles
system.cpu.dcache.WriteReq_miss_latency::total    107120800                       # number of WriteReq miss cycles
system.cpu.dcache.WriteReq_accesses::.cpu.data       257975                       # number of WriteReq accesses(hits+misses)
system.cpu.dcache.WriteReq_accesses::total       257975                       # number of WriteReq accesses(hits+misses)
system.cpu.dcache.WriteReq_miss_rate::.cpu.data     0.008408                       # miss rate for WriteReq accesses
system.cpu.dcache.WriteReq_miss_rate::total     0.008408                       # miss rate for WriteReq accesses
system.cpu.dcache.WriteReq_avg_miss_latency::.cpu.data 49387.183034                       # average WriteReq miss latency
system.cpu.dcache.WriteReq_avg_miss_latency::total 49387.183034                       # average WriteReq miss latency
system.cpu.dcache.WriteReq_mshr_hits::.cpu.data           40                       # number of WriteReq MSHR hits
system.cpu.dcache.WriteReq_mshr_hits::total           40                       # number of WriteReq MSHR hits
system.cpu.dcache.WriteReq_mshr_misses::.cpu.data         2129                       # number of WriteReq MSHR misses
system.cpu.dcache.WriteReq_mshr_misses::total         2129                       # number of WriteReq MSHR misses
system.cpu.dcache.WriteReq_mshr_miss_latency::.cpu.data    103884000                       # number of WriteReq MSHR miss cycles
[...]
system.l2cache.demand_mshr_misses::.cpu.data          128                       # number of demand (read+write) MSHR misses
system.l2cache.demand_mshr_misses::.cpu.dcache.prefetcher           24                       # number of demand (read+write) MSHR misses
system.l2cache.demand_mshr_misses::total          383                       # number of demand (read+write) MSHR misses
system.l2cache.overall_mshr_misses::.cpu.inst          231                       # number of overall MSHR misses
system.l2cache.overall_mshr_misses::.cpu.data          128                       # number of overall MSHR misses
system.l2cache.overall_mshr_misses::.cpu.dcache.prefetcher           24                       # number of overall MSHR misses
system.l2cache.overall_mshr_misses::total          383                       # number of overall MSHR misses
system.l2cache.demand_mshr_miss_latency::.cpu.inst     13568800                       # number of demand (read+write) MSHR miss cycles
system.l2cache.demand_mshr_miss_latency::.cpu.data      7441600                       # number of demand (read+write) MSHR miss cycles
system.l2cache.demand_mshr_miss_latency::.cpu.dcache.prefetcher      1497973                       # number of demand (read+write) MSHR miss cycles
system.l2cache.demand_mshr_miss_latency::total     22508373                       # number of demand (read+write) MSHR miss cycles
system.l2cache.overall_mshr_miss_latency::.cpu.inst     13568800                       # number of overall MSHR miss cycles
system.l2cache.overall_mshr_miss_latency::.cpu.data      7441600                       # number of overall MSHR miss cycles
system.l2cache.overall_mshr_miss_latency::.cpu.dcache.prefetcher      1497973                       # number of overall MSHR miss cycles
system.l2cache.overall_mshr_miss_latency::total     22508373                       # number of overall MSHR miss cycles
system.l2cache.demand_mshr_miss_rate::.cpu.inst     0.505470                       # mshr miss rate for demand accesses
system.l2cache.demand_mshr_miss_rate::.cpu.data     0.533333                       # mshr miss rate for demand accesses
system.l2cache.demand_mshr_miss_rate::.cpu.dcache.prefetcher     0.705882                       # mshr miss rate for demand accesses
system.l2cache.demand_mshr_miss_rate::total     0.523940                       # mshr miss rate for demand accesses
system.l2cache.overall_mshr_miss_rate::.cpu.inst     0.505470                       # mshr miss rate for overall accesses
system.l2cache.overall_mshr_miss_rate::.cpu.data     0.533333                       # mshr miss rate for overall accesses
system.l2cache.overall_mshr_miss_rate::.cpu.dcache.prefetcher     0.705882                       # mshr miss rate for overall accesses
system.l2cache.overall_mshr_miss_rate::total     0.523940                       # mshr miss rate for overall accesses
system.l2cache.demand_avg_mshr_miss_latency::.cpu.inst 58739.393939                       # average overall mshr miss latency
system.l2cache.demand_avg_mshr_miss_latency::.cpu.data 58137.500000                       # average overall mshr miss latency
system.l2cache.demand_avg_mshr_miss_latency::.cpu.dcache.prefetcher 62415.541667                       # average overall mshr miss latency
system.l2cache.demand_avg_mshr_miss_latency::total 58768.597911                       # average overall mshr miss latency
system.l2cache.overall_avg_mshr_miss_latency::.cpu.inst 58739.393939                       # average overall mshr miss latency
system.l2cache.overall_avg_mshr_miss_latency::.cpu.data 58137.500000                       # average overall mshr miss latency
system.l2cache.overall_avg_mshr_miss_latency::.cpu.dcache.prefetcher 62415.541667                       # average overall mshr miss latency
system.l2cache.overall_avg_mshr_miss_latency::total 58768.597911                       # average overall mshr miss latency
system.l2cache.replacements                       392                       # number of replacements
system.l2cache.WritebackDirty_hits::.writebacks           82                       # number of WritebackDirty hits
system.l2cache.WritebackDirty_hits::total           82                       # number of WritebackDirty hits
system.l2cache.WritebackDirty_accesses::.writebacks           82                       # number of WritebackDirty accesses(hits+misses)
system.l2cache.WritebackDirty_accesses::total           82                       # number of WritebackDirty accesses(hits+misses)
system.l2cache.CleanEvict_mshr_misses::.writebacks            8                       # number of CleanEvict MSHR misses
system.l2cache.CleanEvict_mshr_misses::total            8                       # number of CleanEvict MSHR misses
system.l2cache.CleanEvict_mshr_miss_rate::.writebacks          inf                       # mshr miss rate for CleanEvict accesses
system.l2cache.CleanEvict_mshr_miss_rate::total          inf                       # mshr miss rate for CleanEvict accesses
system.l2cache.ReadExReq_hits::.cpu.data            4                       # number of ReadExReq hits
system.l2cache.ReadExReq_hits::total                4                       # number of ReadExReq hits
system.l2cache.ReadExReq_misses::.cpu.data           15                       # number of ReadExReq misses
system.l2cache.ReadExReq_misses::total             15                       # number of ReadExReq misses
system.l2cache.ReadExReq_miss_latency::.cpu.data      1014000                       # number of ReadExReq miss cycles
system.l2cache.ReadExReq_miss_latency::total      1014000                       # number of ReadExReq miss cycles
system.l2cache.ReadExReq_accesses::.cpu.data           19                       # number of ReadExReq accesses(hits+misses)
system.l2cache.ReadExReq_accesses::total           19                       # number of ReadExReq accesses(hits+misses)
system.l2cache.ReadExReq_miss_rate::.cpu.data     0.789474                       # miss rate for ReadExReq accesses
system.l2cache.ReadExReq_miss_rate::total     0.789474                       # miss rate for ReadExReq accesses
system.l2cache.ReadExReq_avg_miss_latency::.cpu.data        67600                       # average ReadExReq miss latency
system.l2cache.ReadExReq_avg_miss_latency::total        67600                       # average ReadExReq miss latency
system.l2cache.ReadExReq_mshr_misses::.cpu.data           15                       # number of ReadExReq MSHR misses
system.l2cache.ReadExReq_mshr_misses::total           15                       # number of ReadExReq MSHR misses
system.l2cache.ReadExReq_mshr_miss_latency::.cpu.data       894000                       # number of ReadExReq MSHR miss cycles
system.l2cache.ReadExReq_mshr_miss_latency::total       894000                       # number of ReadExReq MSHR miss cycles
system.l2cache.ReadExReq_mshr_miss_rate::.cpu.data     0.789474                       # mshr miss rate for ReadExReq accesses
system.l2cache.ReadExReq_mshr_miss_rate::total     0.789474                       # mshr miss rate for ReadExReq accesses
system.l2cache.ReadExReq_avg_mshr_miss_latency::.cpu.data        59600                       # average ReadExReq mshr miss latency
system.l2cache.ReadExReq_avg_mshr_miss_latency::total        59600                       # average ReadExReq mshr miss latency
system.l2cache.ReadSharedReq_hits::.cpu.inst          226                       # number of ReadSharedReq hits
system.l2cache.ReadSharedReq_hits::.cpu.data          108                       # number of ReadSharedReq hits
system.l2cache.ReadSharedReq_hits::.cpu.dcache.prefetcher           10                       # number of ReadSharedReq hits
system.l2cache.ReadSharedReq_hits::total          344                       # number of ReadSharedReq hits
system.l2cache.ReadSharedReq_misses::.cpu.inst          231                       # number of ReadSharedReq misses
system.l2cache.ReadSharedReq_misses::.cpu.data          113                       # number of ReadSharedReq misses
system.l2cache.ReadSharedReq_misses::.cpu.dcache.prefetcher           24                       # number of ReadSharedReq misses
system.l2cache.ReadSharedReq_misses::total          368                       # number of ReadSharedReq misses
system.l2cache.ReadSharedReq_miss_latency::.cpu.inst     15408800                       # number of ReadSharedReq miss cycles
system.l2cache.ReadSharedReq_miss_latency::.cpu.data      7451600                       # number of ReadSharedReq miss cycles
system.l2cache.ReadSharedReq_miss_latency::.cpu.dcache.prefetcher      1689973                       # number of ReadSharedReq miss cycles
system.l2cache.ReadSharedReq_miss_latency::total     24550373                       # number of ReadSharedReq miss cycles
system.l2cache.ReadSharedReq_accesses::.cpu.inst          457                       # number of ReadSharedReq accesses(hits+misses)
system.l2cache.ReadSharedReq_accesses::.cpu.data          221                       # number of ReadSharedReq accesses(hits+misses)
system.l2cache.ReadSharedReq_accesses::.cpu.dcache.prefetcher           34                       # number of ReadSharedReq accesses(hits+misses)
system.l2cache.ReadSharedReq_accesses::total          712                       # number of ReadSharedReq accesses(hits+misses)
system.l2cache.ReadSharedReq_miss_rate::.cpu.inst     0.505470                       # miss rate for ReadSharedReq accesses
system.l2cache.ReadSharedReq_miss_rate::.cpu.data     0.511312                       # miss rate for ReadSharedReq accesses
system.l2cache.ReadSharedReq_miss_rate::.cpu.dcache.prefetcher     0.705882                       # miss rate for ReadSharedReq accesses
system.l2cache.ReadSharedReq_miss_rate::total     0.516854                       # miss rate for ReadSharedReq accesses
system.l2cache.ReadSharedReq_avg_miss_latency::.cpu.inst 66704.761905                       # average ReadSharedReq miss latency
system.l2cache.ReadSharedReq_avg_miss_latency::.cpu.data 65943.362832                       # average ReadSharedReq miss latency
system.l2cache.ReadSharedReq_avg_miss_latency::.cpu.dcache.prefetcher 70415.541667                       # average ReadSharedReq miss latency
system.l2cache.ReadSharedReq_avg_miss_latency::total 66712.970109                       # average ReadSharedReq miss latency
system.l2cache.ReadSharedReq_mshr_misses::.cpu.inst          231                       # number of ReadSharedReq MSHR misses
system.l2cache.ReadSharedReq_mshr_misses::.cpu.data          113                       # number of ReadSharedReq MSHR misses
system.l2cache.ReadSharedReq_mshr_misses::.cpu.dcache.prefetcher           24                       # number of ReadSharedReq MSHR misses
system.l2cache.ReadSharedReq_mshr_misses::total          368                       # number of ReadSharedReq MSHR misses
system.l2cache.ReadSharedReq_mshr_miss_latency::.cpu.inst     13568800                       # number of ReadSharedReq MSHR miss cycles
system.l2cache.ReadSharedReq_mshr_miss_latency::.cpu.data      6547600                       # number of ReadSharedReq MSHR miss cycles
system.l2cache.ReadSharedReq_mshr_miss_latency::.cpu.dcache.prefetcher      1497973                       # number of ReadSharedReq MSHR miss cycles
system.l2cache.ReadSharedReq_mshr_miss_latency::total     21614373                       # number of ReadSharedReq MSHR miss cycles
system.l2cache.ReadSharedReq_mshr_miss_rate::.cpu.inst     0.505470                       # mshr miss rate for ReadSharedReq accesses
system.l2cache.ReadSharedReq_mshr_miss_rate::.cpu.data     0.511312                       # mshr miss rate for ReadSharedReq accesses
system.l2cache.ReadSharedReq_mshr_miss_rate::.cpu.dcache.prefetcher     0.705882                       # mshr miss rate for ReadSharedReq accesses
system.l2cache.ReadSharedReq_mshr_miss_rate::total     0.516854                       # mshr miss rate for ReadSharedReq accesses
system.l2cache.ReadSharedReq_avg_mshr_miss_latency::.cpu.inst 58739.393939                       # average ReadSharedReq mshr miss latency
system.l2cache.ReadSharedReq_avg_mshr_miss_latency::.cpu.data 57943.362832                       # average ReadSharedReq mshr miss latency
system.l2cache.ReadSharedReq_avg_mshr_miss_latency::.cpu.dcache.prefetcher 62415.541667                       # average ReadSharedReq mshr miss latency
system.l2cache.ReadSharedReq_avg_mshr_miss_latency::total 58734.709239                       # average ReadSharedReq mshr miss latency
system.l2cache.prefetcher.pwrStateResidencyTicks::UNDEFINED     28802000                       # Cumulative time (in ticks) in various power states
system.l2cache.tags.pwrStateResidencyTicks::UNDEFINED     28802000                       # Cumulative time (in ticks) in various power states
system.l2cache.tags.tagsinuse                    4096                       # Cycle average of tags in use
system.l2cache.tags.total_refs                  13965                       # Total number of references to valid blocks.
system.l2cache.tags.sampled_refs                 4488                       # Sample count of references to valid blocks.
system.l2cache.tags.avg_refs                 3.111631                       # Average number of references to valid blocks.
system.l2cache.tags.warmup_cycle                    0                       # Cycle when the warmup percentage was hit.
system.l2cache.tags.occ_blocks::.writebacks    42.361281                       # Average occupied blocks per requestor
system.l2cache.tags.occ_blocks::.cpu.inst  1122.399379                       # Average occupied blocks per requestor
system.l2cache.tags.occ_blocks::.cpu.data  1823.197943                       # Average occupied blocks per requestor
system.l2cache.tags.occ_blocks::.cpu.dcache.prefetcher   977.704074                       # Average occupied blocks per requestor
system.l2cache.tags.occ_blocks::.l2cache.prefetcher   130.337324                       # Average occupied blocks per requestor
system.l2cache.tags.occ_percent::.writebacks     0.010342                       # Average percentage of cache occupancy
system.l2cache.tags.occ_percent::.cpu.inst     0.274023                       # Average percentage of cache occupancy
system.l2cache.tags.occ_percent::.cpu.data     0.445117                       # Average percentage of cache occupancy
system.l2cache.tags.occ_percent::.cpu.dcache.prefetcher     0.238697                       # Average percentage of cache occupancy
system.l2cache.tags.occ_percent::.l2cache.prefetcher     0.031821                       # Average percentage of cache occupancy
system.l2cache.tags.occ_percent::total              1                       # Average percentage of cache occupancy
system.l2cache.tags.occ_task_id_blocks::1022         1055                       # Occupied blocks per task id
system.l2cache.tags.occ_task_id_blocks::1024         3041                       # Occupied blocks per task id
system.l2cache.tags.age_task_id_blocks_1022::0            6                       # Occupied blocks per task id
system.l2cache.tags.age_task_id_blocks_1022::1           39                       # Occupied blocks per task id
system.l2cache.tags.age_task_id_blocks_1022::2          991                       # Occupied blocks per task id
system.l2cache.tags.age_task_id_blocks_1022::3           19                       # Occupied blocks per task id
system.l2cache.tags.age_task_id_blocks_1024::0          176                       # Occupied blocks per task id
system.l2cache.tags.age_task_id_blocks_1024::1          324                       # Occupied blocks per task id
system.l2cache.tags.age_task_id_blocks_1024::2         2392                       # Occupied blocks per task id
system.l2cache.tags.age_task_id_blocks_1024::3          149                       # Occupied blocks per task id
system.l2cache.tags.occ_task_id_percent::1022     0.257568                       # Percentage of cache occupancy per task id
system.l2cache.tags.occ_task_id_percent::1024     0.742432                       # Percentage of cache occupancy per task id
system.l2cache.tags.tag_accesses                12072                       # Number of tag accesses
system.l2cache.tags.data_accesses               12072                       # Number of data accesses
system.mem_ctrl.pwrStateResidencyTicks::UNDEFINED     28802000                       # Cumulative time (in ticks) in various power states
system.mem_ctrl.bytes_read::.cpu.inst           14720                       # Number of bytes read from this memory
system.mem_ctrl.bytes_read::.cpu.data            8192                       # Number of bytes read from this memory
system.mem_ctrl.bytes_read::.cpu.dcache.prefetcher         1536                       # Number of bytes read from this memory
system.mem_ctrl.bytes_read::total               24448                       # Number of bytes read from this memory
system.mem_ctrl.bytes_inst_read::.cpu.inst        14720                       # Number of instructions bytes read from this memory
system.mem_ctrl.bytes_inst_read::total          14720                       # Number of instructions bytes read from this memory
system.mem_ctrl.bytes_written::.writebacks         1600                       # Number of bytes written to this memory
system.mem_ctrl.bytes_written::total             1600                       # Number of bytes written to this memory
system.mem_ctrl.num_reads::.cpu.inst              230                       # Number of read requests responded to by this memory
system.mem_ctrl.num_reads::.cpu.data              128                       # Number of read requests responded to by this memory
system.mem_ctrl.num_reads::.cpu.dcache.prefetcher           24                       # Number of read requests responded to by this memory
system.mem_ctrl.num_reads::total                  382                       # Number of read requests responded to by this memory
system.mem_ctrl.num_writes::.writebacks            25                       # Number of write requests responded to by this memory
system.mem_ctrl.num_writes::total                  25                       # Number of write requests responded to by this memory
system.mem_ctrl.bw_read::.cpu.inst          511075620                       # Total read bandwidth from this memory (bytes/s)
system.mem_ctrl.bw_read::.cpu.data          284424693                       # Total read bandwidth from this memory (bytes/s)
system.mem_ctrl.bw_read::.cpu.dcache.prefetcher     53329630                       # Total read bandwidth from this memory (bytes/s)
system.mem_ctrl.bw_read::total              848829942                       # Total read bandwidth from this memory (bytes/s)
system.mem_ctrl.bw_inst_read::.cpu.inst     511075620                       # Instruction read bandwidth from this memory (bytes/s)
system.mem_ctrl.bw_inst_read::total         511075620                       # Instruction read bandwidth from this memory (bytes/s)
system.mem_ctrl.bw_write::.writebacks        55551698                       # Write bandwidth from this memory (bytes/s)
system.mem_ctrl.bw_write::total              55551698                       # Write bandwidth from this memory (bytes/s)
system.mem_ctrl.bw_total::.writebacks        55551698                       # Total bandwidth to/from this memory (bytes/s)
system.mem_ctrl.bw_total::.cpu.inst         511075620                       # Total bandwidth to/from this memory (bytes/s)
system.mem_ctrl.bw_total::.cpu.data         284424693                       # Total bandwidth to/from this memory (bytes/s)
system.mem_ctrl.bw_total::.cpu.dcache.prefetcher     53329630                       # Total bandwidth to/from this memory (bytes/s)
system.mem_ctrl.bw_total::total             904381640                       # Total bandwidth to/from this memory (bytes/s)

---------- End Simulation Statistics   ----------
