
---------- Begin Simulation Statistics ----------
final_tick                                 1120370400                       # Number of ticks from beginning of simulation (restored from checkpoints and never reset)
host_inst_rate                                 185904                       # Simulator instruction rate (inst/s)
host_mem_usage                                4402740                       # Number of bytes of host memory used
host_op_rate                                   322666                       # Simulator op (including micro ops) rate (op/s)
host_seconds                                    11.73                       # Real time elapsed on the host
host_tick_rate                               95507906                       # Simulator tick rate (ticks/s)
sim_freq                                 1000000000000                       # Frequency of simulated ticks
sim_insts                                     2180753                       # Number of instructions simulated
sim_ops                                       3785081                       # Number of ops (including micro ops) simulated
sim_seconds                                  0.001120                       # Number of seconds simulated
sim_ticks                                  1120370400                       # Number of ticks simulated
system.cpu.branchPred.BTBCorrect                    0                       # Number of correct BTB predictions (this stat may not work properly.
system.cpu.branchPred.BTBHitPct              0.000000                       # BTB Hit Percentage
system.cpu.branchPred.BTBHits                       0                       # Number of BTB hits
system.cpu.branchPred.BTBLookups               443633                       # Number of BTB lookups
system.cpu.branchPred.RASInCorrect                  4                       # Number of incorrect RAS predictions.
system.cpu.branchPred.condIncorrect             24153                       # Number of conditional branches incorrect
system.cpu.branchPred.condPredicted            472293                       # Number of conditional branches predicted
system.cpu.branchPred.indirectHits             247982                       # Number of indirect target hits.
system.cpu.branchPred.indirectLookups          443633                       # Number of indirect predictor lookups.
system.cpu.branchPred.indirectMisses           195651                       # Number of indirect misses.
system.cpu.branchPred.lookups                  503718                       # Number of BP lookups
system.cpu.branchPred.usedRAS                   13928                       # Number of times the RAS was used to get a target.
system.cpu.branchPredindirectMispredicted        12137                       # Number of mispredicted indirect branches.
system.cpu.cc_regfile_reads                   2440892                       # number of cc regfile reads
system.cpu.cc_regfile_writes                  2054793                       # number of cc regfile writes
system.cpu.commit.amos                              0                       # Number of atomic instructions committed
system.cpu.commit.branchMispredicts             24203                       # The number of times a branch was mispredicted
system.cpu.commit.branches                     359550                       # Number of branches committed
system.cpu.commit.bw_lim_events                626693                       # number cycles where commit BW limit reached
system.cpu.commit.commitNonSpecStalls             732                       # The number of times commit has been forced to stall to communicate backwards
system.cpu.commit.commitSquashedInsts          883395                       # The number of squashed insts skipped by commit
system.cpu.commit.committedInsts              2180753                       # Number of instructions committed
system.cpu.commit.committedOps                3785081                       # Number of ops (including micro ops) committed
system.cpu.commit.committed_per_cycle::samples      2410531                       # Number of insts commited each cycle
system.cpu.commit.committed_per_cycle::mean     1.570227                       # Number of insts commited each cycle
system.cpu.commit.committed_per_cycle::stdev     1.720252                       # Number of insts commited each cycle
system.cpu.commit.committed_per_cycle::underflows            0      0.00%      0.00% # Number of insts commited each cycle
system.cpu.commit.committed_per_cycle::0      1157685     48.03%     48.03% # Number of insts commited each cycle
system.cpu.commit.committed_per_cycle::1       207560      8.61%     56.64% # Number of insts commited each cycle
system.cpu.commit.committed_per_cycle::2       185030      7.68%     64.31% # Number of insts commited each cycle
system.cpu.commit.committed_per_cycle::3       233563      9.69%     74.00% # Number of insts commited each cycle
system.cpu.commit.committed_per_cycle::4       626693     26.00%    100.00% # Number of insts commited each cycle
system.cpu.commit.committed_per_cycle::overflows            0      0.00%    100.00% # Number of insts commited each cycle
system.cpu.commit.committed_per_cycle::min_value            0                       # Number of insts commited each cycle
system.cpu.commit.committed_per_cycle::max_value            4                       # Number of insts commited each cycle
system.cpu.commit.committed_per_cycle::total      2410531                       # Number of insts commited each cycle
system.cpu.commit.fp_insts                      72844                       # Number of committed floating point instructions.
system.cpu.commit.function_calls                12148                       # Number of function calls committed.
system.cpu.commit.int_insts                   3730911                       # Number of committed integer instructions.
system.cpu.commit.loads                        506442                       # Number of loads committed
system.cpu.commit.membars                           1                       # Number of memory barriers committed
system.cpu.commit.op_class_0::No_OpClass        20169      0.53%      0.53% # Class of committed instruction
system.cpu.commit.op_class_0::IntAlu          2993835     79.10%     79.63% # Class of committed instruction
system.cpu.commit.op_class_0::IntMult            5371      0.14%     79.77% # Class of committed instruction
system.cpu.commit.op_class_0::IntDiv            37816      1.00%     80.77% # Class of committed instruction
system.cpu.commit.op_class_0::FloatAdd           2834      0.07%     80.84% # Class of committed instruction
system.cpu.commit.op_class_0::FloatCmp              0      0.00%     80.84% # Class of committed instruction
system.cpu.commit.op_class_0::FloatCvt           1200      0.03%     80.88% # Class of committed instruction
system.cpu.commit.op_class_0::FloatMult             0      0.00%     80.88% # Class of committed instruction
system.cpu.commit.op_class_0::FloatMultAcc            0      0.00%     80.88% # Class of committed instruction
system.cpu.commit.op_class_0::FloatDiv              0      0.00%     80.88% # Class of committed instruction
system.cpu.commit.op_class_0::FloatMisc             0      0.00%     80.88% # Class of committed instruction
system.cpu.commit.op_class_0::FloatSqrt             0      0.00%     80.88% # Class of committed instruction
system.cpu.commit.op_class_0::SimdAdd            6184      0.16%     81.04% # Class of committed instruction
system.cpu.commit.op_class_0::SimdAddAcc            0      0.00%     81.04% # Class of committed instruction
system.cpu.commit.op_class_0::SimdAlu           11116      0.29%     81.33% # Class of committed instruction
system.cpu.commit.op_class_0::SimdCmp               0      0.00%     81.33% # Class of committed instruction
system.cpu.commit.op_class_0::SimdCvt           12050      0.32%     81.65% # Class of committed instruction
system.cpu.commit.op_class_0::SimdMisc           6479      0.17%     81.82% # Class of committed instruction
system.cpu.commit.op_class_0::SimdMult              0      0.00%     81.82% # Class of committed instruction
system.cpu.commit.op_class_0::SimdMultAcc            0      0.00%     81.82% # Class of committed instruction
system.cpu.commit.op_class_0::SimdShift          1055      0.03%     81.85% # Class of committed instruction
system.cpu.commit.op_class_0::SimdShiftAcc            0      0.00%     81.85% # Class of committed instruction
system.cpu.commit.op_class_0::SimdDiv               0      0.00%     81.85% # Class of committed instruction
system.cpu.commit.op_class_0::SimdSqrt              0      0.00%     81.85% # Class of committed instruction
system.cpu.commit.op_class_0::SimdFloatAdd            0      0.00%     81.85% # Class of committed instruction
system.cpu.commit.op_class_0::SimdFloatAlu            0      0.00%     81.85% # Class of committed instruction
system.cpu.commit.op_class_0::SimdFloatCmp            0      0.00%     81.85% # Class of committed instruction
system.cpu.commit.op_class_0::SimdFloatCvt            0      0.00%     81.85% # Class of committed instruction
system.cpu.commit.op_class_0::SimdFloatDiv            0      0.00%     81.85% # Class of committed instruction
system.cpu.commit.op_class_0::SimdFloatMisc            0      0.00%     81.85% # Class of committed instruction
system.cpu.commit.op_class_0::SimdFloatMult            0      0.00%     81.85% # Class of committed instruction
system.cpu.commit.op_class_0::SimdFloatMultAcc            0      0.00%     81.85% # Class of committed instruction
system.cpu.commit.op_class_0::SimdFloatSqrt            0      0.00%     81.85% # Class of committed instruction
system.cpu.commit.op_class_0::SimdReduceAdd            0      0.00%     81.85% # Class of committed instruction
system.cpu.commit.op_class_0::SimdReduceAlu            0      0.00%     81.85% # Class of committed instruction
system.cpu.commit.op_class_0::SimdReduceCmp            0      0.00%     81.85% # Class of committed instruction
system.cpu.commit.op_class_0::SimdFloatReduceAdd            0      0.00%     81.85% # Class of committed instruction
system.cpu.commit.op_class_0::SimdFloatReduceCmp            0      0.00%     81.85% # Class of committed instruction
system.cpu.commit.op_class_0::SimdAes               0      0.00%     81.85% # Class of committed instruction
system.cpu.commit.op_class_0::SimdAesMix            0      0.00%     81.85% # Class of committed instruction
system.cpu.commit.op_class_0::SimdSha1Hash            0      0.00%     81.85% # Class of committed instruction
system.cpu.commit.op_class_0::SimdSha1Hash2            0      0.00%     81.85% # Class of committed instruction
system.cpu.commit.op_class_0::SimdSha256Hash            0      0.00%     81.85% # Class of committed instruction
system.cpu.commit.op_class_0::SimdSha256Hash2            0      0.00%     81.85% # Class of committed instruction
system.cpu.commit.op_class_0::SimdShaSigma2            0      0.00%     81.85% # Class of committed instruction
system.cpu.commit.op_class_0::SimdShaSigma3            0      0.00%     81.85% # Class of committed instruction
system.cpu.commit.op_class_0::SimdPredAlu            0      0.00%     81.85% # Class of committed instruction
system.cpu.commit.op_class_0::MemRead          487404     12.88%     94.73% # Class of committed instruction
system.cpu.commit.op_class_0::MemWrite         168461      4.45%     99.18% # Class of committed instruction
system.cpu.commit.op_class_0::FloatMemRead        19038      0.50%     99.68% # Class of committed instruction
system.cpu.commit.op_class_0::FloatMemWrite        12069      0.32%    100.00% # Class of committed instruction
system.cpu.commit.op_class_0::IprAccess             0      0.00%    100.00% # Class of committed instruction
system.cpu.commit.op_class_0::InstPrefetch            0      0.00%    100.00% # Class of committed instruction
system.cpu.commit.op_class_0::total           3785081                       # Class of committed instruction
system.cpu.commit.refs                         686972                       # Number of memory references committed
system.cpu.commit.swp_count                         0                       # Number of s/w prefetches committed
system.cpu.commit.vec_insts                         0                       # Number of committed Vector instructions.
system.cpu.committedInsts                     2180753                       # Number of Instructions Simulated
system.cpu.committedOps                       3785081                       # Number of Ops (including micro ops) Simulated
system.cpu.cpi                               1.284385                       # CPI: Cycles Per Instruction
system.cpu.cpi_total                         1.284385                       # CPI: Total CPI of All Threads
system.cpu.dcache.prefetcher.num_hwpf_issued         8041                       # number of hwpf issued
system.cpu.dcache.prefetcher.pfBufferHit        34111                       # number of redundant prefetches already in prefetch queue
system.cpu.dcache.prefetcher.pfIdentified        49810                       # number of prefetch candidates identified
system.cpu.dcache.prefetcher.pfInCache              0                       # number of redundant prefetches already in cache/mshr dropped
system.cpu.dcache.prefetcher.pfRemovedFull            0                       # number of prefetches dropped due to prefetch queue size
system.cpu.dcache.prefetcher.pfSpanPage          4542                       # number of prefetches that crossed the page
system.cpu.decode.BlockedCycles               1039855                       # Number of cycles decode is blocked
system.cpu.decode.DecodedInsts                4884877                       # Number of instructions handled by decode
system.cpu.decode.IdleCycles                   306400                       # Number of cycles decode is idle
system.cpu.decode.RunCycles                   1187282                       # Number of cycles decode is running
system.cpu.decode.SquashCycles                  24268                       # Number of cycles decode is squashing
system.cpu.decode.UnblockCycles                 93743                       # Number of cycles decode is unblocking
system.cpu.dtb.rdAccesses                      588987                       # TLB accesses on read requests
system.cpu.dtb.rdMisses                          2039                       # TLB misses on read requests
system.cpu.dtb.wrAccesses                      200227                       # TLB accesses on write requests
system.cpu.dtb.wrMisses                           149                       # TLB misses on write requests
system.cpu.fetch.Branches                      503718                       # Number of branches that fetch encountered
system.cpu.fetch.CacheLines                    259912                       # Number of cache lines fetched
system.cpu.fetch.Cycles                       2280988                       # Number of cycles fetch has run and was not squashing or blocked
system.cpu.fetch.IcacheSquashes                  4509                       # Number of outstanding Icache misses that were squashed
system.cpu.fetch.Insts                        2951848                       # Number of instructions fetch has processed
system.cpu.fetch.MiscStallCycles                   73                       # Number of cycles fetch has spent waiting on interrupts, or bad addresses, or out of MSHRs
system.cpu.fetch.PendingQuiesceStallCycles            8                       # Number of stall cycles due to pending quiesce instructions
system.cpu.fetch.PendingTrapStallCycles           373                       # Number of stall cycles due to pending traps
system.cpu.fetch.SquashCycles                   48536                       # Number of cycles fetch has spent squashing
system.cpu.fetch.branchRate                  0.179840                       # Number of branch fetches per cycle
system.cpu.fetch.icacheStallCycles             345838                       # Number of cycles fetch is stalled on an Icache miss
system.cpu.fetch.predictedBranches             261910                       # Number of branches that fetch has predicted taken
system.cpu.fetch.rate                        1.053883                       # Number of inst fetches per cycle
system.cpu.fetch.rateDist::samples            2651548                       # Number of instructions fetched each cycle (Total)
system.cpu.fetch.rateDist::mean              1.947461                       # Number of instructions fetched each cycle (Total)
system.cpu.fetch.rateDist::stdev             1.928082                       # Number of instructions fetched each cycle (Total)
system.cpu.fetch.rateDist::underflows               0      0.00%      0.00% # Number of instructions fetched each cycle (Total)
system.cpu.fetch.rateDist::0                  1248754     47.10%     47.10% # Number of instructions fetched each cycle (Total)
system.cpu.fetch.rateDist::1                    78304      2.95%     50.05% # Number of instructions fetched each cycle (Total)
system.cpu.fetch.rateDist::2                    65298      2.46%     52.51% # Number of instructions fetched each cycle (Total)
system.cpu.fetch.rateDist::3                    81882      3.09%     55.60% # Number of instructions fetched each cycle (Total)
system.cpu.fetch.rateDist::4                  1177310     44.40%    100.00% # Number of instructions fetched each cycle (Total)
system.cpu.fetch.rateDist::overflows                0      0.00%    100.00% # Number of instructions fetched each cycle (Total)
system.cpu.fetch.rateDist::min_value                0                       # Number of instructions fetched each cycle (Total)
system.cpu.fetch.rateDist::max_value                4                       # Number of instructions fetched each cycle (Total)
system.cpu.fetch.rateDist::total              2651548                       # Number of instructions fetched each cycle (Total)
system.cpu.fp_regfile_reads                    118369                       # number of floating regfile reads
system.cpu.fp_regfile_writes                    64867                       # number of floating regfile writes
system.cpu.fuPool.fu_ticks_busy::IntALU(0)    228083200                       # Total ticks fu was busy
system.cpu.fuPool.fu_ticks_busy::IntALU(1)    228083200                       # Total ticks fu was busy
system.cpu.fuPool.fu_ticks_busy::IntALU(2)    228083200                       # Total ticks fu was busy
system.cpu.fuPool.fu_ticks_busy::IntALU(3)    228083200                       # Total ticks fu was busy
system.cpu.fuPool.fu_ticks_busy::IntALU(4)    228082800                       # Total ticks fu was busy
system.cpu.fuPool.fu_ticks_busy::IntALU(5)    228082800                       # Total ticks fu was busy
system.cpu.fuPool.fu_ticks_busy::IntMultDiv(0)      9412800                       # Total ticks fu was busy
system.cpu.fuPool.fu_ticks_busy::IntMultDiv(1)      9412800                       # Total ticks fu was busy
system.cpu.fuPool.fu_ticks_busy::FP_ALU(0)       546800                       # Total ticks fu was busy
system.cpu.fuPool.fu_ticks_busy::FP_ALU(1)       546800                       # Total ticks fu was busy
system.cpu.fuPool.fu_ticks_busy::FP_ALU(2)       546800                       # Total ticks fu was busy
system.cpu.fuPool.fu_ticks_busy::FP_ALU(3)       546400                       # Total ticks fu was busy
system.cpu.fuPool.fu_ticks_busy::FP_MultDiv(0)            0                       # Total ticks fu was busy
system.cpu.fuPool.fu_ticks_busy::FP_MultDiv(1)            0                       # Total ticks fu was busy
system.cpu.fuPool.fu_ticks_busy::SIMD_Unit(0)      4371600                       # Total ticks fu was busy
system.cpu.fuPool.fu_ticks_busy::SIMD_Unit(1)      4404000                       # Total ticks fu was busy
system.cpu.fuPool.fu_ticks_busy::SIMD_Unit(2)      4481600                       # Total ticks fu was busy
system.cpu.fuPool.fu_ticks_busy::SIMD_Unit(3)      4444400                       # Total ticks fu was busy
system.cpu.fuPool.fu_ticks_busy::PredALU(0)            0                       # Total ticks fu was busy
system.cpu.fuPool.fu_ticks_busy::RdWrPort(0)     80366000                       # Total ticks fu was busy
system.cpu.fuPool.fu_ticks_busy::RdWrPort(1)     80404800                       # Total ticks fu was busy
system.cpu.fuPool.fu_ticks_busy::RdWrPort(2)     80400000                       # Total ticks fu was busy
system.cpu.fuPool.fu_ticks_busy::RdWrPort(3)     80335600                       # Total ticks fu was busy
system.cpu.fuPool.fu_ticks_busy::IprPort(0)            0                       # Total ticks fu was busy
system.cpu.fuPool.fu_ticks_busy::total     1728718800                       # Total ticks fu was busy
system.cpu.icache.prefetcher.num_hwpf_issued            0                       # number of hwpf issued
system.cpu.icache.prefetcher.pfBufferHit            0                       # number of redundant prefetches already in prefetch queue
system.cpu.icache.prefetcher.pfIdentified            0                       # number of prefetch candidates identified
system.cpu.icache.prefetcher.pfInCache              0                       # number of redundant prefetches already in cache/mshr dropped
system.cpu.icache.prefetcher.pfRemovedFull            0                       # number of prefetches dropped due to prefetch queue size
system.cpu.icache.prefetcher.pfSpanPage             0                       # number of prefetches that crossed the page
system.cpu.idleCycles                          149379                       # Total number of cycles that the CPU has spent unscheduled due to idling
system.cpu.iew.branchMispredicts                28486                       # Number of branch mispredicts detected at execute
system.cpu.iew.exec_branches                   389517                       # Number of branches executed
system.cpu.iew.exec_nop                             0                       # number of nop insts executed
system.cpu.iew.exec_rate                     1.539977                       # Inst execution rate
system.cpu.iew.exec_refs                       790963                       # number of memory reference insts executed
system.cpu.iew.exec_stores                     200216                       # Number of stores executed
system.cpu.iew.exec_swp                             0                       # number of swp insts executed
system.cpu.iew.iewBlockCycles                  689147                       # Number of cycles IEW is blocking
system.cpu.iew.iewDispLoadInsts                621534                       # Number of dispatched load instructions
system.cpu.iew.iewDispNonSpecInsts                933                       # Number of dispatched non-speculative instructions
system.cpu.iew.iewDispSquashedInsts               584                       # Number of squashed instructions skipped by dispatch
system.cpu.iew.iewDispStoreInsts               210643                       # Number of dispatched store instructions
system.cpu.iew.iewDispatchedInsts             4668418                       # Number of instructions dispatched to IQ
system.cpu.iew.iewExecLoadInsts                590747                       # Number of load instructions executed
system.cpu.iew.iewExecSquashedInsts             34437                       # Number of squashed instructions skipped in execute
system.cpu.iew.iewExecutedInsts               4313364                       # Number of executed instructions
system.cpu.iew.iewIQFullEvents                   3304                       # Number of times the IQ has become full, causing a stall
system.cpu.iew.iewIdleCycles                        0                       # Number of cycles IEW is idle
system.cpu.iew.iewLSQFullEvents                  9301                       # Number of times the LSQ has become full, causing a stall
system.cpu.iew.iewSquashCycles                  24268                       # Number of cycles IEW is squashing
system.cpu.iew.iewUnblockCycles                 15480                       # Number of cycles IEW is unblocking
system.cpu.iew.lsq.thread0.blockedLoads             0                       # Number of blocked loads due to partial load-store forwarding
system.cpu.iew.lsq.thread0.cacheBlocked           609                       # Number of times an access to memory failed due to the cache being blocked
system.cpu.iew.lsq.thread0.forwLoads            42665                       # Number of loads that had data forwarded from stores
system.cpu.iew.lsq.thread0.ignoredResponses          229                       # Number of memory responses ignored because the instruction is squashed
system.cpu.iew.lsq.thread0.invAddrLoads             0                       # Number of loads ignored due to an invalid address
system.cpu.iew.lsq.thread0.invAddrSwpfs             0                       # Number of software prefetches ignored due to an invalid address
system.cpu.iew.lsq.thread0.memOrderViolation           78                       # Number of memory ordering violations
system.cpu.iew.lsq.thread0.rescheduledLoads            0                       # Number of loads that were rescheduled
system.cpu.iew.lsq.thread0.squashedLoads       115090                       # Number of loads squashed
system.cpu.iew.lsq.thread0.squashedStores        30112                       # Number of stores squashed
system.cpu.iew.memOrderViolationEvents             78                       # Number of memory order violations
system.cpu.iew.predictedNotTakenIncorrect        20528                       # Number of branches that were predicted not taken incorrectly
system.cpu.iew.predictedTakenIncorrect           7958                       # Number of branches that were predicted taken incorrectly
system.cpu.iew.wb_consumers                   6072974                       # num instructions consuming a value
system.cpu.iew.wb_count                       4291868                       # cumulative count of insts written-back
system.cpu.iew.wb_fanout                     0.565657                       # average fanout of values written-back
system.cpu.iew.wb_producers                   3435222                       # num instructions producing a value
system.cpu.iew.wb_rate                       1.532303                       # insts written-back per cycle
system.cpu.iew.wb_sent                        4298698                       # cumulative count of insts sent to commit
system.cpu.int_regfile_reads                  6693268                       # number of integer regfile reads
system.cpu.int_regfile_writes                 3717764                       # number of integer regfile writes
system.cpu.ipc                               0.778583                       # IPC: Instructions Per Cycle
system.cpu.ipc_total                         0.778583                       # IPC: Total IPC of All Threads
system.cpu.iq.FU_type_0::No_OpClass             26004      0.60%      0.60% # Type of FU issued
system.cpu.iq.FU_type_0::IntAlu               3421247     78.69%     79.29% # Type of FU issued
system.cpu.iq.FU_type_0::IntMult                 5404      0.12%     79.41% # Type of FU issued
system.cpu.iq.FU_type_0::IntDiv                 41660      0.96%     80.37% # Type of FU issued
system.cpu.iq.FU_type_0::FloatAdd                4232      0.10%     80.47% # Type of FU issued
system.cpu.iq.FU_type_0::FloatCmp                   0      0.00%     80.47% # Type of FU issued
system.cpu.iq.FU_type_0::FloatCvt                1235      0.03%     80.50% # Type of FU issued
system.cpu.iq.FU_type_0::FloatMult                  0      0.00%     80.50% # Type of FU issued
system.cpu.iq.FU_type_0::FloatMultAcc               0      0.00%     80.50% # Type of FU issued
system.cpu.iq.FU_type_0::FloatDiv                   0      0.00%     80.50% # Type of FU issued
system.cpu.iq.FU_type_0::FloatMisc                  0      0.00%     80.50% # Type of FU issued
system.cpu.iq.FU_type_0::FloatSqrt                  0      0.00%     80.50% # Type of FU issued
system.cpu.iq.FU_type_0::SimdAdd                 6734      0.15%     80.65% # Type of FU issued
system.cpu.iq.FU_type_0::SimdAddAcc                 0      0.00%     80.65% # Type of FU issued
system.cpu.iq.FU_type_0::SimdAlu                14947      0.34%     80.99% # Type of FU issued
system.cpu.iq.FU_type_0::SimdCmp                    0      0.00%     80.99% # Type of FU issued
system.cpu.iq.FU_type_0::SimdCvt                13597      0.31%     81.31% # Type of FU issued
system.cpu.iq.FU_type_0::SimdMisc                6992      0.16%     81.47% # Type of FU issued
system.cpu.iq.FU_type_0::SimdMult                   0      0.00%     81.47% # Type of FU issued
system.cpu.iq.FU_type_0::SimdMultAcc                0      0.00%     81.47% # Type of FU issued
system.cpu.iq.FU_type_0::SimdShift               1984      0.05%     81.51% # Type of FU issued
system.cpu.iq.FU_type_0::SimdShiftAcc               0      0.00%     81.51% # Type of FU issued
system.cpu.iq.FU_type_0::SimdDiv                    0      0.00%     81.51% # Type of FU issued
system.cpu.iq.FU_type_0::SimdSqrt                   0      0.00%     81.51% # Type of FU issued
system.cpu.iq.FU_type_0::SimdFloatAdd               0      0.00%     81.51% # Type of FU issued
system.cpu.iq.FU_type_0::SimdFloatAlu               0      0.00%     81.51% # Type of FU issued
system.cpu.iq.FU_type_0::SimdFloatCmp               0      0.00%     81.51% # Type of FU issued
system.cpu.iq.FU_type_0::SimdFloatCvt               0      0.00%     81.51% # Type of FU issued
system.cpu.iq.FU_type_0::SimdFloatDiv               0      0.00%     81.51% # Type of FU issued
system.cpu.iq.FU_type_0::SimdFloatMisc              0      0.00%     81.51% # Type of FU issued
system.cpu.iq.FU_type_0::SimdFloatMult              0      0.00%     81.51% # Type of FU issued
system.cpu.iq.FU_type_0::SimdFloatMultAcc            0      0.00%     81.51% # Type of FU issued
system.cpu.iq.FU_type_0::SimdFloatSqrt              0      0.00%     81.51% # Type of FU issued
system.cpu.iq.FU_type_0::SimdReduceAdd              0      0.00%     81.51% # Type of FU issued
system.cpu.iq.FU_type_0::SimdReduceAlu              0      0.00%     81.51% # Type of FU issued
system.cpu.iq.FU_type_0::SimdReduceCmp              0      0.00%     81.51% # Type of FU issued
system.cpu.iq.FU_type_0::SimdFloatReduceAdd            0      0.00%     81.51% # Type of FU issued
system.cpu.iq.FU_type_0::SimdFloatReduceCmp            0      0.00%     81.51% # Type of FU issued
system.cpu.iq.FU_type_0::SimdAes                    0      0.00%     81.51% # Type of FU issued
system.cpu.iq.FU_type_0::SimdAesMix                 0      0.00%     81.51% # Type of FU issued
system.cpu.iq.FU_type_0::SimdSha1Hash               0      0.00%     81.51% # Type of FU issued
system.cpu.iq.FU_type_0::SimdSha1Hash2              0      0.00%     81.51% # Type of FU issued
system.cpu.iq.FU_type_0::SimdSha256Hash             0      0.00%     81.51% # Type of FU issued
system.cpu.iq.FU_type_0::SimdSha256Hash2            0      0.00%     81.51% # Type of FU issued
system.cpu.iq.FU_type_0::SimdShaSigma2              0      0.00%     81.51% # Type of FU issued
system.cpu.iq.FU_type_0::SimdShaSigma3              0      0.00%     81.51% # Type of FU issued
system.cpu.iq.FU_type_0::SimdPredAlu                0      0.00%     81.51% # Type of FU issued
system.cpu.iq.FU_type_0::MemRead               576391     13.26%     94.77% # Type of FU issued
system.cpu.iq.FU_type_0::MemWrite              189132      4.35%     99.12% # Type of FU issued
system.cpu.iq.FU_type_0::FloatMemRead           24660      0.57%     99.69% # Type of FU issued
system.cpu.iq.FU_type_0::FloatMemWrite          13585      0.31%    100.00% # Type of FU issued
system.cpu.iq.FU_type_0::IprAccess                  0      0.00%    100.00% # Type of FU issued
system.cpu.iq.FU_type_0::InstPrefetch               0      0.00%    100.00% # Type of FU issued
system.cpu.iq.FU_type_0::total                4347804                       # Type of FU issued
system.cpu.iq.fp_alu_accesses                   88947                       # Number of floating point alu accesses
system.cpu.iq.fp_inst_queue_reads              179184                       # Number of floating instruction queue reads
system.cpu.iq.fp_inst_queue_wakeup_accesses        85724                       # Number of floating instruction queue wakeup accesses
system.cpu.iq.fp_inst_queue_writes             129014                       # Number of floating instruction queue writes
system.cpu.iq.fu_busy_cnt                           0                       # FU busy when requested
system.cpu.iq.fu_busy_rate                          0                       # FU busy rate (busy events/executed inst)
system.cpu.iq.fu_full::No_OpClass                   0                       # attempts to use FU when none available
system.cpu.iq.fu_full::IntAlu                       0                       # attempts to use FU when none available
system.cpu.iq.fu_full::IntMult                      0                       # attempts to use FU when none available
system.cpu.iq.fu_full::IntDiv                       0                       # attempts to use FU when none available
system.cpu.iq.fu_full::FloatAdd                     0                       # attempts to use FU when none available
system.cpu.iq.fu_full::FloatCmp                     0                       # attempts to use FU when none available
system.cpu.iq.fu_full::FloatCvt                     0                       # attempts to use FU when none available
system.cpu.iq.fu_full::FloatMult                    0                       # attempts to use FU when none available
system.cpu.iq.fu_full::FloatMultAcc                 0                       # attempts to use FU when none available
system.cpu.iq.fu_full::FloatDiv                     0                       # attempts to use FU when none available
system.cpu.iq.fu_full::FloatMisc                    0                       # attempts to use FU when none available
system.cpu.iq.fu_full::FloatSqrt                    0                       # attempts to use FU when none available
system.cpu.iq.fu_full::SimdAdd                      0                       # attempts to use FU when none available
system.cpu.iq.fu_full::SimdAddAcc                   0                       # attempts to use FU when none available
system.cpu.iq.fu_full::SimdAlu                      0                       # attempts to use FU when none available
system.cpu.iq.fu_full::SimdCmp                      0                       # attempts to use FU when none available
system.cpu.iq.fu_full::SimdCvt                      0                       # attempts to use FU when none available
system.cpu.iq.fu_full::SimdMisc                     0                       # attempts to use FU when none available
system.cpu.iq.fu_full::SimdMult                     0                       # attempts to use FU when none available
system.cpu.iq.fu_full::SimdMultAcc                  0                       # attempts to use FU when none available
system.cpu.iq.fu_full::SimdShift                    0                       # attempts to use FU when none available
system.cpu.iq.fu_full::SimdShiftAcc                 0                       # attempts to use FU when none available
system.cpu.iq.fu_full::SimdDiv                      0                       # attempts to use FU when none available
system.cpu.iq.fu_full::SimdSqrt                     0                       # attempts to use FU when none available
system.cpu.iq.fu_full::SimdFloatAdd                 0                       # attempts to use FU when none available
system.cpu.iq.fu_full::SimdFloatAlu                 0                       # attempts to use FU when none available
system.cpu.iq.fu_full::SimdFloatCmp                 0                       # attempts to use FU when none available
system.cpu.iq.fu_full::SimdFloatCvt                 0                       # attempts to use FU when none available
system.cpu.iq.fu_full::SimdFloatDiv                 0                       # attempts to use FU when none available
system.cpu.iq.fu_full::SimdFloatMisc                0                       # attempts to use FU when none available
system.cpu.iq.fu_full::SimdFloatMult                0                       # attempts to use FU when none available
system.cpu.iq.fu_full::SimdFloatMultAcc             0                       # attempts to use FU when none available
system.cpu.iq.fu_full::SimdFloatSqrt                0                       # attempts to use FU when none available
system.cpu.iq.fu_full::SimdReduceAdd                0                       # attempts to use FU when none available
system.cpu.iq.fu_full::SimdReduceAlu                0                       # attempts to use FU when none available
system.cpu.iq.fu_full::SimdReduceCmp                0                       # attempts to use FU when none available
system.cpu.iq.fu_full::SimdFloatReduceAdd            0                       # attempts to use FU when none available
system.cpu.iq.fu_full::SimdFloatReduceCmp            0                       # attempts to use FU when none available
system.cpu.iq.fu_full::SimdAes                      0                       # attempts to use FU when none available
system.cpu.iq.fu_full::SimdAesMix                   0                       # attempts to use FU when none available
system.cpu.iq.fu_full::SimdSha1Hash                 0                       # attempts to use FU when none available
system.cpu.iq.fu_full::SimdSha1Hash2                0                       # attempts to use FU when none available
system.cpu.iq.fu_full::SimdSha256Hash               0                       # attempts to use FU when none available
system.cpu.iq.fu_full::SimdSha256Hash2              0                       # attempts to use FU when none available
system.cpu.iq.fu_full::SimdShaSigma2                0                       # attempts to use FU when none available
system.cpu.iq.fu_full::SimdShaSigma3                0                       # attempts to use FU when none available
system.cpu.iq.fu_full::SimdPredAlu                  0                       # attempts to use FU when none available
system.cpu.iq.fu_full::MemRead                      0                       # attempts to use FU when none available
system.cpu.iq.fu_full::MemWrite                     0                       # attempts to use FU when none available
system.cpu.iq.fu_full::FloatMemRead                 0                       # attempts to use FU when none available
system.cpu.iq.fu_full::FloatMemWrite                0                       # attempts to use FU when none available
system.cpu.iq.fu_full::IprAccess                    0                       # attempts to use FU when none available
system.cpu.iq.fu_full::InstPrefetch                 0                       # attempts to use FU when none available
system.cpu.iq.int_alu_accesses                4232853                       # Number of integer alu accesses
system.cpu.iq.int_inst_queue_reads           11186717                       # Number of integer instruction queue reads
system.cpu.iq.int_inst_queue_wakeup_accesses      4206144                       # Number of integer instruction queue wakeup accesses
system.cpu.iq.int_inst_queue_writes           5422806                       # Number of integer instruction queue writes
system.cpu.iq.iqInstsAdded                    4667286                       # Number of instructions added to the IQ (excludes non-spec)
system.cpu.iq.iqInstsIssued                   4347804                       # Number of instructions issued
system.cpu.iq.iqNonSpecInstsAdded                1132                       # Number of non-speculative instructions added to the IQ
system.cpu.iq.iqSquashedInstsExamined          883326                       # Number of squashed instructions iterated over during squash; mainly for profiling
system.cpu.iq.iqSquashedInstsIssued             18748                       # Number of squashed instructions issued
system.cpu.iq.iqSquashedNonSpecRemoved            400                       # Number of squashed non-spec instructions that were removed
system.cpu.iq.iqSquashedOperandsExamined      1319210                       # Number of squashed operands that are examined and possibly removed from graph
system.cpu.iq.issued_per_cycle::samples       2651548                       # Number of insts issued each cycle
system.cpu.iq.issued_per_cycle::mean         1.639723                       # Number of insts issued each cycle
system.cpu.iq.issued_per_cycle::stdev        1.661822                       # Number of insts issued each cycle
system.cpu.iq.issued_per_cycle::underflows            0      0.00%      0.00% # Number of insts issued each cycle
system.cpu.iq.issued_per_cycle::0             1169091     44.09%     44.09% # Number of insts issued each cycle
system.cpu.iq.issued_per_cycle::1              195087      7.36%     51.45% # Number of insts issued each cycle
system.cpu.iq.issued_per_cycle::2              318090     12.00%     63.44% # Number of insts issued each cycle
system.cpu.iq.issued_per_cycle::3              360583     13.60%     77.04% # Number of insts issued each cycle
system.cpu.iq.issued_per_cycle::4              608697     22.96%    100.00% # Number of insts issued each cycle
system.cpu.iq.issued_per_cycle::overflows            0      0.00%    100.00% # Number of insts issued each cycle
system.cpu.iq.issued_per_cycle::min_value            0                       # Number of insts issued each cycle
system.cpu.iq.issued_per_cycle::max_value            4                       # Number of insts issued each cycle
system.cpu.iq.issued_per_cycle::total         2651548                       # Number of insts issued each cycle
system.cpu.iq.rate                           1.552273                       # Inst issue rate
system.cpu.iq.vec_alu_accesses                      0                       # Number of vector alu accesses
system.cpu.iq.vec_inst_queue_reads                  0                       # Number of vector instruction queue reads
system.cpu.iq.vec_inst_queue_wakeup_accesses            0                       # Number of vector instruction queue wakeup accesses
system.cpu.iq.vec_inst_queue_writes                 0                       # Number of vector instruction queue writes
system.cpu.itb.rdAccesses                           0                       # TLB accesses on read requests
system.cpu.itb.rdMisses                             0                       # TLB misses on read requests
system.cpu.itb.wrAccesses                      259977                       # TLB accesses on write requests
system.cpu.itb.wrMisses                           303                       # TLB misses on write requests
system.cpu.memDep0.conflictingLoads             15695                       # Number of conflicting loads.
system.cpu.memDep0.conflictingStores             7219                       # Number of conflicting stores.
system.cpu.memDep0.insertedLoads               621534                       # Number of loads inserted to the mem dependence unit.
system.cpu.memDep0.insertedStores              210643                       # Number of stores inserted to the mem dependence unit.
system.cpu.misc_regfile_reads                 1611598                       # number of misc regfile reads
system.cpu.misc_regfile_writes                    675                       # number of misc regfile writes
system.cpu.numCycles                          2800927                       # number of cpu cycles simulated
system.cpu.numWorkItemsCompleted                    0                       # number of work items this cpu completed
system.cpu.numWorkItemsStarted                      0                       # number of work items this cpu started
system.cpu.process.numSyscalls                     56                       # Number of system calls
system.cpu.rename.BlockCycles                  836453                       # Number of cycles rename is blocking
system.cpu.rename.CommittedMaps               5216730                       # Number of HB maps that are committed
system.cpu.rename.FullRegisterEvents              188                       # Number of times there has been no free registers
system.cpu.rename.IQFullEvents                  53750                       # Number of times rename has blocked due to IQ full
system.cpu.rename.IdleCycles                   359532                       # Number of cycles rename is idle
system.cpu.rename.LQFullEvents                  17568                       # Number of times rename has blocked due to LQ full
system.cpu.rename.ROBFullEvents                  4509                       # Number of times rename has blocked due to ROB full
system.cpu.rename.RenameLookups              12501037                       # Number of register rename lookups that rename has made
system.cpu.rename.RenamedInsts                4809711                       # Number of instructions processed by rename
system.cpu.rename.RenamedOperands             6609844                       # Number of destination operands rename has renamed
system.cpu.rename.RunCycles                   1219137                       # Number of cycles rename is running
system.cpu.rename.SQFullEvents                  82716                       # Number of times rename has blocked due to SQ full
system.cpu.rename.SquashCycles                  24268                       # Number of cycles rename is squashing
system.cpu.rename.UnblockCycles                192852                       # Number of cycles rename is unblocking
system.cpu.rename.UndoneMaps                  1393091                       # Number of HB maps that are undone due to squashing
system.cpu.rename.fp_rename_lookups            152212                       # Number of floating rename lookups
system.cpu.rename.int_rename_lookups          7639599                       # Number of integer rename lookups
system.cpu.rename.serializeStallCycles          19306                       # count of cycles rename stalled for serializing inst
system.cpu.rename.serializingInsts                869                       # count of serializing insts renamed
system.cpu.rename.skidInsts                    223505                       # count of insts added to the skid buffer
system.cpu.rename.tempSerializingInsts            916                       # count of temporary serializing insts renamed
system.cpu.rob.rob_reads                      6452314                       # The number of ROB reads
system.cpu.rob.rob_writes                     9578899                       # The number of ROB writes
system.cpu.timesIdled                            1470                       # Number of times that the entire CPU went into an idle state and unscheduled itself
system.l2bus.snoop_filter.hit_multi_requests            9                       # Number of requests hitting in the snoop filter with multiple (>1) holders of the requested data.
system.l2bus.snoop_filter.hit_multi_snoops            1                       # Number of snoops hitting in the snoop filter with multiple (>1) holders of the requested data.
system.l2bus.snoop_filter.hit_single_requests        18228                       # Number of requests hitting in the snoop filter with a single holder of the requested data.
system.l2bus.snoop_filter.hit_single_snoops          453                       # Number of snoops hitting in the snoop filter with a single holder of the requested data.
system.l2bus.snoop_filter.tot_requests          37736                       # Total number of requests made to the snoop filter.
system.l2bus.snoop_filter.tot_snoops              454                       # Total number of snoops made to the snoop filter.
system.l2cache.prefetcher.num_hwpf_issued          756                       # number of hwpf issued
system.l2cache.prefetcher.pfBufferHit               0                       # number of redundant prefetches already in prefetch queue
system.l2cache.prefetcher.pfIdentified            756                       # number of prefetch candidates identified
system.l2cache.prefetcher.pfInCache                 0                       # number of redundant prefetches already in cache/mshr dropped
system.l2cache.prefetcher.pfRemovedFull             0                       # number of prefetches dropped due to prefetch queue size
system.l2cache.prefetcher.pfSpanPage               92                       # number of prefetches that crossed the page
system.membus.snoop_filter.hit_multi_requests            0                       # Number of requests hitting in the snoop filter with multiple (>1) holders of the requested data.
system.membus.snoop_filter.hit_multi_snoops            0                       # Number of snoops hitting in the snoop filter with multiple (>1) holders of the requested data.
system.membus.snoop_filter.hit_single_requests         9410                       # Number of requests hitting in the snoop filter with a single holder of the requested data.
system.membus.snoop_filter.hit_single_snoops            0                       # Number of snoops hitting in the snoop filter with a single holder of the requested data.
system.membus.snoop_filter.tot_requests         22945                       # Total number of requests made to the snoop filter.
system.membus.snoop_filter.tot_snoops               0                       # Total number of snoops made to the snoop filter.
system.membus.pwrStateResidencyTicks::UNDEFINED   1120370400                       # Cumulative time (in ticks) in various power states
system.membus.trans_dist::ReadResp              12111                       # Transaction distribution
system.membus.trans_dist::WritebackDirty         1319                       # Transaction distribution
system.membus.trans_dist::CleanEvict             8091                       # Transaction distribution
system.membus.trans_dist::ReadExReq              1424                       # Transaction distribution
system.membus.trans_dist::ReadExResp             1424                       # Transaction distribution
system.membus.trans_dist::ReadSharedReq         12111                       # Transaction distribution
system.membus.pkt_count_system.l2cache.mem_side::system.mem_ctrl.port        36480                       # Packet count per connected master and slave (bytes)
system.membus.pkt_count_system.l2cache.mem_side::total        36480                       # Packet count per connected master and slave (bytes)
system.membus.pkt_count::total                  36480                       # Packet count per connected master and slave (bytes)
system.membus.pkt_size_system.l2cache.mem_side::system.mem_ctrl.port       950656                       # Cumulative packet size per connected master and slave (bytes)
system.membus.pkt_size_system.l2cache.mem_side::total       950656                       # Cumulative packet size per connected master and slave (bytes)
system.membus.pkt_size::total                  950656                       # Cumulative packet size per connected master and slave (bytes)
system.membus.snoops                                0                       # Total snoops (count)
system.membus.snoopTraffic                          0                       # Total snoop traffic (bytes)
system.membus.snoop_fanout::samples             13535                       # Request fanout histogram
system.membus.snoop_fanout::mean                    0                       # Request fanout histogram
system.membus.snoop_fanout::stdev                   0                       # Request fanout histogram
system.membus.snoop_fanout::underflows              0      0.00%      0.00% # Request fanout histogram
system.membus.snoop_fanout::0                   13535    100.00%    100.00% # Request fanout histogram
system.membus.snoop_fanout::1                       0      0.00%    100.00% # Request fanout histogram
system.membus.snoop_fanout::overflows               0      0.00%    100.00% # Request fanout histogram
system.membus.snoop_fanout::min_value               0                       # Request fanout histogram
system.membus.snoop_fanout::max_value               0                       # Request fanout histogram
system.membus.snoop_fanout::total               13535                       # Request fanout histogram
system.membus.reqLayer2.occupancy            11322219                       # Layer occupancy (ticks)
system.membus.reqLayer2.utilization               1.0                       # Layer utilization (%)
system.membus.respLayer0.occupancy           29413281                       # Layer occupancy (ticks)
system.membus.respLayer0.utilization              2.6                       # Layer utilization (%)
system.l2bus.pwrStateResidencyTicks::UNDEFINED   1120370400                       # Cumulative time (in ticks) in various power states
system.l2bus.trans_dist::ReadResp               17335                       # Transaction distribution
system.l2bus.trans_dist::WritebackDirty          4138                       # Transaction distribution
system.l2bus.trans_dist::CleanEvict             23594                       # Transaction distribution
system.l2bus.trans_dist::HardPFReq               1058                       # Transaction distribution
system.l2bus.trans_dist::ReadExReq               2173                       # Transaction distribution
system.l2bus.trans_dist::ReadExResp              2173                       # Transaction distribution
system.l2bus.trans_dist::ReadSharedReq          17335                       # Transaction distribution
system.l2bus.pkt_count_system.cpu.icache.mem_side::system.l2cache.cpu_side         7515                       # Packet count per connected master and slave (bytes)
system.l2bus.pkt_count_system.cpu.dcache.mem_side::system.l2cache.cpu_side        49727                       # Packet count per connected master and slave (bytes)
system.l2bus.pkt_count::total                   57242                       # Packet count per connected master and slave (bytes)
system.l2bus.pkt_size_system.cpu.icache.mem_side::system.l2cache.cpu_side       165696                       # Cumulative packet size per connected master and slave (bytes)
system.l2bus.pkt_size_system.cpu.dcache.mem_side::system.l2cache.cpu_side      1263104                       # Cumulative packet size per connected master and slave (bytes)
system.l2bus.pkt_size::total                  1428800                       # Cumulative packet size per connected master and slave (bytes)
system.l2bus.snoops                             10564                       # Total snoops (count)
system.l2bus.snoopTraffic                       84544                       # Total snoop traffic (bytes)
system.l2bus.snoop_fanout::samples              30070                       # Request fanout histogram
system.l2bus.snoop_fanout::mean              0.015431                       # Request fanout histogram
system.l2bus.snoop_fanout::stdev             0.123530                       # Request fanout histogram
system.l2bus.snoop_fanout::underflows               0      0.00%      0.00% # Request fanout histogram
system.l2bus.snoop_fanout::0                    29607     98.46%     98.46% # Request fanout histogram
system.l2bus.snoop_fanout::1                      462      1.54%    100.00% # Request fanout histogram
system.l2bus.snoop_fanout::2                        1      0.00%    100.00% # Request fanout histogram
system.l2bus.snoop_fanout::overflows                0      0.00%    100.00% # Request fanout histogram
system.l2bus.snoop_fanout::min_value                0                       # Request fanout histogram
system.l2bus.snoop_fanout::max_value                2                       # Request fanout histogram
system.l2bus.snoop_fanout::total                30070                       # Request fanout histogram
system.l2bus.respLayer1.occupancy            20300799                       # Layer occupancy (ticks)
system.l2bus.respLayer1.utilization               1.8                       # Layer utilization (%)
system.l2bus.reqLayer0.occupancy             18820150                       # Layer occupancy (ticks)
system.l2bus.reqLayer0.utilization                1.7                       # Layer utilization (%)
system.l2bus.respLayer0.occupancy             3109200                       # Layer occupancy (ticks)
system.l2bus.respLayer0.utilization               0.3                       # Layer utilization (%)
system.clk_domain.clock                           400                       # Clock period in ticks
system.clk_domain.voltage_domain.voltage            1                       # Voltage in Volts
system.cpu.pwrStateResidencyTicks::ON      1120370400                       # Cumulative time (in ticks) in various power states
system.cpu.icache.pwrStateResidencyTicks::UNDEFINED   1120370400                       # Cumulative time (in ticks) in various power states
system.cpu.icache.demand_hits::.cpu.inst       256633                       # number of demand (read+write) hits
system.cpu.icache.demand_hits::total           256633                       # number of demand (read+write) hits
system.cpu.icache.overall_hits::.cpu.inst       256633                       # number of overall hits
system.cpu.icache.overall_hits::total          256633                       # number of overall hits
system.cpu.icache.demand_misses::.cpu.inst         3278                       # number of demand (read+write) misses
system.cpu.icache.demand_misses::total           3278                       # number of demand (read+write) misses
system.cpu.icache.overall_misses::.cpu.inst         3278                       # number of overall misses
system.cpu.icache.overall_misses::total          3278                       # number of overall misses
system.cpu.icache.demand_miss_latency::.cpu.inst    165671200                       # number of demand (read+write) miss cycles
system.cpu.icache.demand_miss_latency::total    165671200                       # number of demand (read+write) miss cycles
system.cpu.icache.overall_miss_latency::.cpu.inst    165671200                       # number of overall miss cycles
system.cpu.icache.overall_miss_latency::total    165671200                       # number of overall miss cycles
system.cpu.icache.demand_accesses::.cpu.inst       259911                       # number of demand (read+write) accesses
system.cpu.icache.demand_accesses::total       259911                       # number of demand (read+write) accesses
system.cpu.icache.overall_accesses::.cpu.inst       259911                       # number of overall (read+write) accesses
system.cpu.icache.overall_accesses::total       259911                       # number of overall (read+write) accesses
system.cpu.icache.demand_miss_rate::.cpu.inst     0.012612                       # miss rate for demand accesses
system.cpu.icache.demand_miss_rate::total     0.012612                       # miss rate for demand accesses
system.cpu.icache.overall_miss_rate::.cpu.inst     0.012612                       # miss rate for overall accesses
system.cpu.icache.overall_miss_rate::total     0.012612                       # miss rate for overall accesses
system.cpu.icache.demand_avg_miss_latency::.cpu.inst 50540.329469                       # average overall miss latency
system.cpu.icache.demand_avg_miss_latency::total 50540.329469                       # average overall miss latency
system.cpu.icache.overall_avg_miss_latency::.cpu.inst 50540.329469                       # average overall miss latency
system.cpu.icache.overall_avg_miss_latency::total 50540.329469                       # average overall miss latency
system.cpu.icache.blocked_cycles::no_mshrs           39                       # number of cycles access was blocked
system.cpu.icache.blocked_cycles::no_targets            0                       # number of cycles access was blocked
system.cpu.icache.blocked::no_mshrs                 2                       # number of cycles access was blocked
system.cpu.icache.blocked::no_targets               0                       # number of cycles access was blocked
system.cpu.icache.avg_blocked_cycles::no_mshrs    19.500000                       # average number of cycles each access was blocked
system.cpu.icache.avg_blocked_cycles::no_targets          nan                       # average number of cycles each access was blocked
system.cpu.icache.demand_mshr_hits::.cpu.inst          687                       # number of demand (read+write) MSHR hits
system.cpu.icache.demand_mshr_hits::total          687                       # number of demand (read+write) MSHR hits
system.cpu.icache.overall_mshr_hits::.cpu.inst          687                       # number of overall MSHR hits
system.cpu.icache.overall_mshr_hits::total          687                       # number of overall MSHR hits
system.cpu.icache.demand_mshr_misses::.cpu.inst         2591                       # number of demand (read+write) MSHR misses
system.cpu.icache.demand_mshr_misses::total         2591                       # number of demand (read+write) MSHR misses
system.cpu.icache.overall_mshr_misses::.cpu.inst         2591                       # number of overall MSHR misses
system.cpu.icache.overall_mshr_misses::total         2591                       # number of overall MSHR misses
system.cpu.icache.demand_mshr_miss_latency::.cpu.inst    132117600                       # number of demand (read+write) MSHR miss cycles
system.cpu.icache.demand_mshr_miss_latency::total    132117600                       # number of demand (read+write) MSHR miss cycles
system.cpu.icache.overall_mshr_miss_latency::.cpu.inst    132117600                       # number of overall MSHR miss cycles
system.cpu.icache.overall_mshr_miss_latency::total    132117600                       # number of overall MSHR miss cycles
system.cpu.icache.demand_mshr_miss_rate::.cpu.inst     0.009969                       # mshr miss rate for demand accesses
system.cpu.icache.demand_mshr_miss_rate::total     0.009969                       # mshr miss rate for demand accesses
system.cpu.icache.overall_mshr_miss_rate::.cpu.inst     0.009969                       # mshr miss rate for overall accesses
system.cpu.icache.overall_mshr_miss_rate::total     0.009969                       # mshr miss rate for overall accesses
system.cpu.icache.demand_avg_mshr_miss_latency::.cpu.inst 50990.968738                       # average overall mshr miss latency
system.cpu.icache.demand_avg_mshr_miss_latency::total 50990.968738                       # average overall mshr miss latency
system.cpu.icache.overall_avg_mshr_miss_latency::.cpu.inst 50990.968738                       # average overall mshr miss latency
system.cpu.icache.overall_avg_mshr_miss_latency::total 50990.968738                       # average overall mshr miss latency
system.cpu.icache.replacements                   2335                       # number of replacements
system.cpu.icache.ReadReq_hits::.cpu.inst       256633                       # number of ReadReq hits
system.cpu.icache.ReadReq_hits::total          256633                       # number of ReadReq hits
system.cpu.icache.ReadReq_misses::.cpu.inst         3278                       # number of ReadReq misses
system.cpu.icache.ReadReq_misses::total          3278                       # number of ReadReq misses
system.cpu.icache.ReadReq_miss_latency::.cpu.inst    165671200                       # number of ReadReq miss cycles
system.cpu.icache.ReadReq_miss_latency::total    165671200                       # number of ReadReq miss cycles
system.cpu.icache.ReadReq_accesses::.cpu.inst       259911                       # number of ReadReq accesses(hits+misses)
system.cpu.icache.ReadReq_accesses::total       259911                       # number of ReadReq accesses(hits+misses)
system.cpu.icache.ReadReq_miss_rate::.cpu.inst     0.012612                       # miss rate for ReadReq accesses
system.cpu.icache.ReadReq_miss_rate::total     0.012612                       # miss rate for ReadReq accesses
system.cpu.icache.ReadReq_avg_miss_latency::.cpu.inst 50540.329469                       # average ReadReq miss latency
system.cpu.icache.ReadReq_avg_miss_latency::total 50540.329469                       # average ReadReq miss latency
system.cpu.icache.ReadReq_mshr_hits::.cpu.inst          687                       # number of ReadReq MSHR hits
system.cpu.icache.ReadReq_mshr_hits::total          687                       # number of ReadReq MSHR hits
system.cpu.icache.ReadReq_mshr_misses::.cpu.inst         2591                       # number of ReadReq MSHR misses
system.cpu.icache.ReadReq_mshr_misses::total         2591                       # number of ReadReq MSHR misses
system.cpu.icache.ReadReq_mshr_miss_latency::.cpu.inst    132117600                       # number of ReadReq MSHR miss cycles
system.cpu.icache.ReadReq_mshr_miss_latency::total    132117600                       # number of ReadReq MSHR miss cycles
system.cpu.icache.ReadReq_mshr_miss_rate::.cpu.inst     0.009969                       # mshr miss rate for ReadReq accesses
system.cpu.icache.ReadReq_mshr_miss_rate::total     0.009969                       # mshr miss rate for ReadReq accesses
system.cpu.icache.ReadReq_avg_mshr_miss_latency::.cpu.inst 50990.968738                       # average ReadReq mshr miss latency
system.cpu.icache.ReadReq_avg_mshr_miss_latency::total 50990.968738                       # average ReadReq mshr miss latency
system.cpu.icache.prefetcher.pwrStateResidencyTicks::UNDEFINED   1120370400                       # Cumulative time (in ticks) in various power states
system.cpu.icache.tags.pwrStateResidencyTicks::UNDEFINED   1120370400                       # Cumulative time (in ticks) in various power states
system.cpu.icache.tags.tagsinuse           253.543140                       # Cycle average of tags in use
system.cpu.icache.tags.total_refs              203402                       # Total number of references to valid blocks.
system.cpu.icache.tags.sampled_refs              2335                       # Sample count of references to valid blocks.
system.cpu.icache.tags.avg_refs             87.110064                       # Average number of references to valid blocks.
system.cpu.icache.tags.warmup_cycle             66400                       # Cycle when the warmup percentage was hit.
system.cpu.icache.tags.occ_blocks::.cpu.inst   253.543140                       # Average occupied blocks per requestor
system.cpu.icache.tags.occ_percent::.cpu.inst     0.990403                       # Average percentage of cache occupancy
system.cpu.icache.tags.occ_percent::total     0.990403                       # Average percentage of cache occupancy
system.cpu.icache.tags.occ_task_id_blocks::1024          256                       # Occupied blocks per task id
system.cpu.icache.tags.age_task_id_blocks_1024::0           72                       # Occupied blocks per task id
system.cpu.icache.tags.age_task_id_blocks_1024::1          125                       # Occupied blocks per task id
system.cpu.icache.tags.age_task_id_blocks_1024::2           53                       # Occupied blocks per task id
system.cpu.icache.tags.age_task_id_blocks_1024::3            6                       # Occupied blocks per task id
system.cpu.icache.tags.occ_task_id_percent::1024            1                       # Percentage of cache occupancy per task id
system.cpu.icache.tags.tag_accesses            522413                       # Number of tag accesses
system.cpu.icache.tags.data_accesses           522413                       # Number of data accesses
system.cpu.dtb.walker.pwrStateResidencyTicks::UNDEFINED   1120370400                       # Cumulative time (in ticks) in various power states
system.cpu.interrupts.clk_domain.clock           6400                       # Clock period in ticks
system.cpu.itb.walker.pwrStateResidencyTicks::UNDEFINED   1120370400                       # Cumulative time (in ticks) in various power states
system.cpu.dcache.pwrStateResidencyTicks::UNDEFINED   1120370400                       # Cumulative time (in ticks) in various power states
system.cpu.dcache.demand_hits::.cpu.data       691636                       # number of demand (read+write) hits
system.cpu.dcache.demand_hits::total           691636                       # number of demand (read+write) hits
system.cpu.dcache.overall_hits::.cpu.data       691636                       # number of overall hits
system.cpu.dcache.overall_hits::total          691636                       # number of overall hits
system.cpu.dcache.demand_misses::.cpu.data        34109                       # number of demand (read+write) misses
system.cpu.dcache.demand_misses::total          34109                       # number of demand (read+write) misses
system.cpu.dcache.overall_misses::.cpu.data        34109                       # number of overall misses
system.cpu.dcache.overall_misses::total         34109                       # number of overall misses
system.cpu.dcache.demand_miss_latency::.cpu.data   1657501598                       # number of demand (read+write) miss cycles
system.cpu.dcache.demand_miss_latency::total   1657501598                       # number of demand (read+write) miss cycles
system.cpu.dcache.overall_miss_latency::.cpu.data   1657501598                       # number of overall miss cycles
system.cpu.dcache.overall_miss_latency::total   1657501598                       # number of overall miss cycles
system.cpu.dcache.demand_accesses::.cpu.data       725745                       # number of demand (read+write) accesses
system.cpu.dcache.demand_accesses::total       725745                       # number of demand (read+write) accesses
system.cpu.dcache.overall_accesses::.cpu.data       725745                       # number of overall (read+write) accesses
system.cpu.dcache.overall_accesses::total       725745                       # number of overall (read+write) accesses
system.cpu.dcache.demand_miss_rate::.cpu.data     0.046999                       # miss rate for demand accesses
system.cpu.dcache.demand_miss_rate::total     0.046999                       # miss rate for demand accesses
system.cpu.dcache.overall_miss_rate::.cpu.data     0.046999                       # miss rate for overall accesses
system.cpu.dcache.overall_miss_rate::total     0.046999                       # miss rate for overall accesses
system.cpu.dcache.demand_avg_miss_latency::.cpu.data 48594.259521                       # average overall miss latency
system.cpu.dcache.demand_avg_miss_latency::total 48594.259521                       # average overall miss latency
system.cpu.dcache.overall_avg_miss_latency::.cpu.data 48594.259521                       # average overall miss latency
system.cpu.dcache.overall_avg_miss_latency::total 48594.259521                       # average overall miss latency
system.cpu.dcache.blocked_cycles::no_mshrs        27948                       # number of cycles access was blocked
system.cpu.dcache.blocked_cycles::no_targets          382                       # number of cycles access was blocked
system.cpu.dcache.blocked::no_mshrs               738                       # number of cycles access was blocked
system.cpu.dcache.blocked::no_targets               3                       # number of cycles access was blocked
system.cpu.dcache.avg_blocked_cycles::no_mshrs    37.869919                       # average number of cycles each access was blocked
system.cpu.dcache.avg_blocked_cycles::no_targets   127.333333                       # average number of cycles each access was blocked
system.cpu.dcache.unused_prefetches              1752                       # number of HardPF blocks evicted w/o reference
system.cpu.dcache.writebacks::.writebacks         2819                       # number of writebacks
system.cpu.dcache.writebacks::total              2819                       # number of writebacks
system.cpu.dcache.demand_mshr_hits::.cpu.data        21677                       # number of demand (read+write) MSHR hits
system.cpu.dcache.demand_mshr_hits::total        21677                       # number of demand (read+write) MSHR hits
system.cpu.dcache.overall_mshr_hits::.cpu.data        21677                       # number of overall MSHR hits
system.cpu.dcache.overall_mshr_hits::total        21677                       # number of overall MSHR hits
system.cpu.dcache.demand_mshr_misses::.cpu.data        12432                       # number of demand (read+write) MSHR misses
system.cpu.dcache.demand_mshr_misses::total        12432                       # number of demand (read+write) MSHR misses
system.cpu.dcache.overall_mshr_misses::.cpu.data        12432                       # number of overall MSHR misses
system.cpu.dcache.overall_mshr_misses::.cpu.dcache.prefetcher         4485                       # number of overall MSHR misses
system.cpu.dcache.overall_mshr_misses::total        16917                       # number of overall MSHR misses
system.cpu.dcache.demand_mshr_miss_latency::.cpu.data    573046798                       # number of demand (read+write) MSHR miss cycles
system.cpu.dcache.demand_mshr_miss_latency::total    573046798                       # number of demand (read+write) MSHR miss cycles
system.cpu.dcache.overall_mshr_miss_latency::.cpu.data    573046798                       # number of overall MSHR miss cycles
system.cpu.dcache.overall_mshr_miss_latency::.cpu.dcache.prefetcher    257706835                       # number of overall MSHR miss cycles
system.cpu.dcache.overall_mshr_miss_latency::total    830753633                       # number of overall MSHR miss cycles
system.cpu.dcache.demand_mshr_miss_rate::.cpu.data     0.017130                       # mshr miss rate for demand accesses
system.cpu.dcache.demand_mshr_miss_rate::total     0.017130                       # mshr miss rate for demand accesses
system.cpu.dcache.overall_mshr_miss_rate::.cpu.data     0.017130                       # mshr miss rate for overall accesses
system.cpu.dcache.overall_mshr_miss_rate::.cpu.dcache.prefetcher          inf                       # mshr miss rate for overall accesses
system.cpu.dcache.overall_mshr_miss_rate::total     0.023310                       # mshr miss rate for overall accesses
system.cpu.dcache.demand_avg_mshr_miss_latency::.cpu.data 46094.497909                       # average overall mshr miss latency
system.cpu.dcache.demand_avg_mshr_miss_latency::total 46094.497909                       # average overall mshr miss latency
system.cpu.dcache.overall_avg_mshr_miss_latency::.cpu.data 46094.497909                       # average overall mshr miss latency
system.cpu.dcache.overall_avg_mshr_miss_latency::.cpu.dcache.prefetcher 57459.717949                       # average overall mshr miss latency
system.cpu.dcache.overall_avg_mshr_miss_latency::total 49107.621505                       # average overall mshr miss latency
system.cpu.dcache.replacements                  15893                       # number of replacements
system.cpu.dcache.ReadReq_hits::.cpu.data       513305                       # number of ReadReq hits
system.cpu.dcache.ReadReq_hits::total          513305                       # number of ReadReq hits
system.cpu.dcache.ReadReq_misses::.cpu.data        31904                       # number of ReadReq misses
system.cpu.dcache.ReadReq_misses::total         31904                       # number of ReadReq misses
system.cpu.dcache.ReadReq_miss_latency::.cpu.data   1546919600                       # number of ReadReq miss cycles
system.cpu.dcache.ReadReq_miss_latency::total   1546919600                       # number of ReadReq miss cycles
system.cpu.dcache.ReadReq_accesses::.cpu.data       545209                       # number of ReadReq accesses(hits+misses)
system.cpu.dcache.ReadReq_accesses::total       545209                       # number of ReadReq accesses(hits+misses)
system.cpu.dcache.ReadReq_miss_rate::.cpu.data     0.058517                       # miss rate for ReadReq accesses
system.cpu.dcache.ReadReq_miss_rate::total     0.058517                       # miss rate for ReadReq accesses
system.cpu.dcache.ReadReq_avg_miss_latency::.cpu.data 48486.697593                       # average ReadReq miss latency
system.cpu.dcache.ReadReq_avg_miss_latency::total 48486.697593                       # average ReadReq miss latency
system.cpu.dcache.ReadReq_mshr_hits::.cpu.data        21645                       # number of ReadReq MSHR hits
system.cpu.dcache.ReadReq_mshr_hits::total        21645                       # number of ReadReq MSHR hits
system.cpu.dcache.ReadReq_mshr_misses::.cpu.data        10259                       # number of ReadReq MSHR misses
system.cpu.dcache.ReadReq_mshr_misses::total        10259                       # number of ReadReq MSHR misses
system.cpu.dcache.ReadReq_mshr_miss_latency::.cpu.data    465287200                       # number of ReadReq MSHR miss cycles
system.cpu.dcache.ReadReq_mshr_miss_latency::total    465287200                       # number of ReadReq MSHR miss cycles
system.cpu.dcache.ReadReq_mshr_miss_rate::.cpu.data     0.018817                       # mshr miss rate for ReadReq accesses
system.cpu.dcache.ReadReq_mshr_miss_rate::total     0.018817                       # mshr miss rate for ReadReq accesses
system.cpu.dcache.ReadReq_avg_mshr_miss_latency::.cpu.data 45354.050102                       # average ReadReq mshr miss latency
system.cpu.dcache.ReadReq_avg_mshr_miss_latency::total 45354.050102                       # average ReadReq mshr miss latency
system.cpu.dcache.WriteReq_hits::.cpu.data       178331                       # number of WriteReq hits
system.cpu.dcache.WriteReq_hits::total         178331                       # number of WriteReq hits
system.cpu.dcache.WriteReq_misses::.cpu.data         2205                       # number of WriteReq misses
system.cpu.dcache.WriteReq_misses::total         2205                       # number of WriteReq misses
system.cpu.dcache.WriteReq_miss_latency::.cpu.data    110581998                       # number of WriteReq miss cycles
system.cpu.dcache.WriteReq_miss_latency::total    110581998                       # number of WriteReq miss cycles
system.cpu.dcache.WriteReq_accesses::.cpu.data       180536                       # number of WriteReq accesses(hits+misses)
system.cpu.dcache.WriteReq_accesses::total       180536                       # number of WriteReq accesses(hits+misses)
system.cpu.dcache.WriteReq_miss_rate::.cpu.data     0.012214                       # miss rate for WriteReq accesses
system.cpu.dcache.WriteReq_miss_rate::total     0.012214                       # miss rate for WriteReq accesses
system.cpu.dcache.WriteReq_avg_miss_latency::.cpu.data 50150.565986                       # average WriteReq miss latency
system.cpu.dcache.WriteReq_avg_miss_latency::total 50150.565986                       # average WriteReq miss latency
system.cpu.dcache.WriteReq_mshr_hits::.cpu.data           32                       # number of WriteReq MSHR hits
system.cpu.dcache.WriteReq_mshr_hits::total           32                       # number of WriteReq MSHR hits
system.cpu.dcache.WriteReq_mshr_misses::.cpu.data         2173                       # number of WriteReq MSHR misses
system.cpu.dcache.WriteReq_mshr_misses::total         2173                       # number of WriteReq MSHR misses
system.cpu.dcache.WriteReq_mshr_miss_latency::.cpu.data    107759598                       # number of WriteReq MSHR miss cycles
[...]
system.l2cache.overall_mshr_miss_rate::.cpu.data     0.474797                       # mshr miss rate for overall accesses
system.l2cache.overall_mshr_miss_rate::.cpu.dcache.prefetcher     0.451852                       # mshr miss rate for overall accesses
system.l2cache.overall_mshr_miss_rate::.l2cache.prefetcher          inf                       # mshr miss rate for overall accesses
system.l2cache.overall_mshr_miss_rate::total     0.473014                       # mshr miss rate for overall accesses
system.l2cache.demand_avg_mshr_miss_latency::.cpu.inst 59814.705882                       # average overall mshr miss latency
system.l2cache.demand_avg_mshr_miss_latency::.cpu.data 61695.890411                       # average overall mshr miss latency
system.l2cache.demand_avg_mshr_miss_latency::.cpu.dcache.prefetcher 61435.180328                       # average overall mshr miss latency
system.l2cache.demand_avg_mshr_miss_latency::total 60666.420499                       # average overall mshr miss latency
system.l2cache.overall_avg_mshr_miss_latency::.cpu.inst 59814.705882                       # average overall mshr miss latency
system.l2cache.overall_avg_mshr_miss_latency::.cpu.data 61695.890411                       # average overall mshr miss latency
system.l2cache.overall_avg_mshr_miss_latency::.cpu.dcache.prefetcher 61435.180328                       # average overall mshr miss latency
system.l2cache.overall_avg_mshr_miss_latency::.l2cache.prefetcher 61514.684211                       # average overall mshr miss latency
system.l2cache.overall_avg_mshr_miss_latency::total 60687.083333                       # average overall mshr miss latency
system.l2cache.replacements                       798                       # number of replacements
system.l2cache.WritebackDirty_hits::.writebacks          464                       # number of WritebackDirty hits
system.l2cache.WritebackDirty_hits::total          464                       # number of WritebackDirty hits
system.l2cache.WritebackDirty_accesses::.writebacks          464                       # number of WritebackDirty accesses(hits+misses)
system.l2cache.WritebackDirty_accesses::total          464                       # number of WritebackDirty accesses(hits+misses)
system.l2cache.CleanEvict_mshr_misses::.writebacks           23                       # number of CleanEvict MSHR misses
system.l2cache.CleanEvict_mshr_misses::total           23                       # number of CleanEvict MSHR misses
system.l2cache.CleanEvict_mshr_miss_rate::.writebacks          inf                       # mshr miss rate for CleanEvict accesses
system.l2cache.CleanEvict_mshr_miss_rate::total          inf                       # mshr miss rate for CleanEvict accesses
system.l2cache.HardPFReq_mshr_misses::.l2cache.prefetcher           19                       # number of HardPFReq MSHR misses
system.l2cache.HardPFReq_mshr_misses::total           19                       # number of HardPFReq MSHR misses
system.l2cache.HardPFReq_mshr_miss_latency::.l2cache.prefetcher      1168779                       # number of HardPFReq MSHR miss cycles
system.l2cache.HardPFReq_mshr_miss_latency::total      1168779                       # number of HardPFReq MSHR miss cycles
system.l2cache.HardPFReq_mshr_miss_rate::.l2cache.prefetcher          inf                       # mshr miss rate for HardPFReq accesses
system.l2cache.HardPFReq_mshr_miss_rate::total          inf                       # mshr miss rate for HardPFReq accesses
system.l2cache.HardPFReq_avg_mshr_miss_latency::.l2cache.prefetcher 61514.684211                       # average HardPFReq mshr miss latency
system.l2cache.HardPFReq_avg_mshr_miss_latency::total 61514.684211                       # average HardPFReq mshr miss latency
system.l2cache.UpgradeReq_hits::.cpu.data            1                       # number of UpgradeReq hits
system.l2cache.UpgradeReq_hits::total               1                       # number of UpgradeReq hits
system.l2cache.UpgradeReq_accesses::.cpu.data            1                       # number of UpgradeReq accesses(hits+misses)
system.l2cache.UpgradeReq_accesses::total            1                       # number of UpgradeReq accesses(hits+misses)
system.l2cache.ReadExReq_hits::.cpu.data           61                       # number of ReadExReq hits
system.l2cache.ReadExReq_hits::total               61                       # number of ReadExReq hits
system.l2cache.ReadExReq_misses::.cpu.data          103                       # number of ReadExReq misses
system.l2cache.ReadExReq_misses::total            103                       # number of ReadExReq misses
system.l2cache.ReadExReq_miss_latency::.cpu.data      7046400                       # number of ReadExReq miss cycles
system.l2cache.ReadExReq_miss_latency::total      7046400                       # number of ReadExReq miss cycles
system.l2cache.ReadExReq_accesses::.cpu.data          164                       # number of ReadExReq accesses(hits+misses)
system.l2cache.ReadExReq_accesses::total          164                       # number of ReadExReq accesses(hits+misses)
system.l2cache.ReadExReq_miss_rate::.cpu.data     0.628049                       # miss rate for ReadExReq accesses
system.l2cache.ReadExReq_miss_rate::total     0.628049                       # miss rate for ReadExReq accesses
system.l2cache.ReadExReq_avg_miss_latency::.cpu.data 68411.650485                       # average ReadExReq miss latency
system.l2cache.ReadExReq_avg_miss_latency::total 68411.650485                       # average ReadExReq miss latency
system.l2cache.ReadExReq_mshr_misses::.cpu.data          103                       # number of ReadExReq MSHR misses
system.l2cache.ReadExReq_mshr_misses::total          103                       # number of ReadExReq MSHR misses
system.l2cache.ReadExReq_mshr_miss_latency::.cpu.data      6222400                       # number of ReadExReq MSHR miss cycles
system.l2cache.ReadExReq_mshr_miss_latency::total      6222400                       # number of ReadExReq MSHR miss cycles
system.l2cache.ReadExReq_mshr_miss_rate::.cpu.data     0.628049                       # mshr miss rate for ReadExReq accesses
system.l2cache.ReadExReq_mshr_miss_rate::total     0.628049                       # mshr miss rate for ReadExReq accesses
system.l2cache.ReadExReq_avg_mshr_miss_latency::.cpu.data 60411.650485                       # average ReadExReq mshr miss latency
system.l2cache.ReadExReq_avg_mshr_miss_latency::total 60411.650485                       # average ReadExReq mshr miss latency
system.l2cache.ReadSharedReq_hits::.cpu.inst          491                       # number of ReadSharedReq hits
system.l2cache.ReadSharedReq_hits::.cpu.data          261                       # number of ReadSharedReq hits
system.l2cache.ReadSharedReq_hits::.cpu.dcache.prefetcher           74                       # number of ReadSharedReq hits
system.l2cache.ReadSharedReq_hits::total          826                       # number of ReadSharedReq hits
system.l2cache.ReadSharedReq_misses::.cpu.inst          408                       # number of ReadSharedReq misses
system.l2cache.ReadSharedReq_misses::.cpu.data          190                       # number of ReadSharedReq misses
system.l2cache.ReadSharedReq_misses::.cpu.dcache.prefetcher           61                       # number of ReadSharedReq misses
system.l2cache.ReadSharedReq_misses::total          659                       # number of ReadSharedReq misses
system.l2cache.ReadSharedReq_miss_latency::.cpu.inst     27660400                       # number of ReadSharedReq miss cycles
system.l2cache.ReadSharedReq_miss_latency::.cpu.data     13361200                       # number of ReadSharedReq miss cycles
system.l2cache.ReadSharedReq_miss_latency::.cpu.dcache.prefetcher      4235546                       # number of ReadSharedReq miss cycles
system.l2cache.ReadSharedReq_miss_latency::total     45257146                       # number of ReadSharedReq miss cycles
system.l2cache.ReadSharedReq_accesses::.cpu.inst          899                       # number of ReadSharedReq accesses(hits+misses)
system.l2cache.ReadSharedReq_accesses::.cpu.data          451                       # number of ReadSharedReq accesses(hits+misses)
system.l2cache.ReadSharedReq_accesses::.cpu.dcache.prefetcher          135                       # number of ReadSharedReq accesses(hits+misses)
system.l2cache.ReadSharedReq_accesses::total         1485                       # number of ReadSharedReq accesses(hits+misses)
system.l2cache.ReadSharedReq_miss_rate::.cpu.inst     0.453838                       # miss rate for ReadSharedReq accesses
system.l2cache.ReadSharedReq_miss_rate::.cpu.data     0.421286                       # miss rate for ReadSharedReq accesses
system.l2cache.ReadSharedReq_miss_rate::.cpu.dcache.prefetcher     0.451852                       # miss rate for ReadSharedReq accesses
system.l2cache.ReadSharedReq_miss_rate::total     0.443771                       # miss rate for ReadSharedReq accesses
system.l2cache.ReadSharedReq_avg_miss_latency::.cpu.inst 67795.098039                       # average ReadSharedReq miss latency
system.l2cache.ReadSharedReq_avg_miss_latency::.cpu.data 70322.105263                       # average ReadSharedReq miss latency
system.l2cache.ReadSharedReq_avg_miss_latency::.cpu.dcache.prefetcher 69435.180328                       # average ReadSharedReq miss latency
system.l2cache.ReadSharedReq_avg_miss_latency::total 68675.487102                       # average ReadSharedReq miss latency
system.l2cache.ReadSharedReq_mshr_hits::.cpu.data            1                       # number of ReadSharedReq MSHR hits
system.l2cache.ReadSharedReq_mshr_hits::total            1                       # number of ReadSharedReq MSHR hits
system.l2cache.ReadSharedReq_mshr_misses::.cpu.inst          408                       # number of ReadSharedReq MSHR misses
system.l2cache.ReadSharedReq_mshr_misses::.cpu.data          189                       # number of ReadSharedReq MSHR misses
system.l2cache.ReadSharedReq_mshr_misses::.cpu.dcache.prefetcher           61                       # number of ReadSharedReq MSHR misses
system.l2cache.ReadSharedReq_mshr_misses::total          658                       # number of ReadSharedReq MSHR misses
system.l2cache.ReadSharedReq_mshr_miss_latency::.cpu.inst     24404400                       # number of ReadSharedReq MSHR miss cycles
system.l2cache.ReadSharedReq_mshr_miss_latency::.cpu.data     11792800                       # number of ReadSharedReq MSHR miss cycles
system.l2cache.ReadSharedReq_mshr_miss_latency::.cpu.dcache.prefetcher      3747546                       # number of ReadSharedReq MSHR miss cycles
system.l2cache.ReadSharedReq_mshr_miss_latency::total     39944746                       # number of ReadSharedReq MSHR miss cycles
system.l2cache.ReadSharedReq_mshr_miss_rate::.cpu.inst     0.453838                       # mshr miss rate for ReadSharedReq accesses
system.l2cache.ReadSharedReq_mshr_miss_rate::.cpu.data     0.419069                       # mshr miss rate for ReadSharedReq accesses
system.l2cache.ReadSharedReq_mshr_miss_rate::.cpu.dcache.prefetcher     0.451852                       # mshr miss rate for ReadSharedReq accesses
system.l2cache.ReadSharedReq_mshr_miss_rate::total     0.443098                       # mshr miss rate for ReadSharedReq accesses
system.l2cache.ReadSharedReq_avg_mshr_miss_latency::.cpu.inst 59814.705882                       # average ReadSharedReq mshr miss latency
system.l2cache.ReadSharedReq_avg_mshr_miss_latency::.cpu.data 62395.767196                       # average ReadSharedReq mshr miss latency
system.l2cache.ReadSharedReq_avg_mshr_miss_latency::.cpu.dcache.prefetcher 61435.180328                       # average ReadSharedReq mshr miss latency
system.l2cache.ReadSharedReq_avg_mshr_miss_latency::total 60706.300912                       # average ReadSharedReq mshr miss latency
system.l2cache.prefetcher.pwrStateResidencyTicks::UNDEFINED    703186800                       # Cumulative time (in ticks) in various power states
system.l2cache.tags.pwrStateResidencyTicks::UNDEFINED    703186800                       # Cumulative time (in ticks) in various power states
system.l2cache.tags.tagsinuse                    4096                       # Cycle average of tags in use
system.l2cache.tags.total_refs                  15392                       # Total number of references to valid blocks.
system.l2cache.tags.sampled_refs                 4894                       # Sample count of references to valid blocks.
system.l2cache.tags.avg_refs                 3.145076                       # Average number of references to valid blocks.
system.l2cache.tags.warmup_cycle                    0                       # Cycle when the warmup percentage was hit.
system.l2cache.tags.occ_blocks::.writebacks    42.001761                       # Average occupied blocks per requestor
system.l2cache.tags.occ_blocks::.cpu.inst  1044.294259                       # Average occupied blocks per requestor
system.l2cache.tags.occ_blocks::.cpu.data  1807.924210                       # Average occupied blocks per requestor
system.l2cache.tags.occ_blocks::.cpu.dcache.prefetcher   940.287216                       # Average occupied blocks per requestor
system.l2cache.tags.occ_blocks::.l2cache.prefetcher   261.492554                       # Average occupied blocks per requestor
system.l2cache.tags.occ_percent::.writebacks     0.010254                       # Average percentage of cache occupancy
system.l2cache.tags.occ_percent::.cpu.inst     0.254955                       # Average percentage of cache occupancy
system.l2cache.tags.occ_percent::.cpu.data     0.441388                       # Average percentage of cache occupancy
system.l2cache.tags.occ_percent::.cpu.dcache.prefetcher     0.229562                       # Average percentage of cache occupancy
system.l2cache.tags.occ_percent::.l2cache.prefetcher     0.063841                       # Average percentage of cache occupancy
system.l2cache.tags.occ_percent::total              1                       # Average percentage of cache occupancy
system.l2cache.tags.occ_task_id_blocks::1022         1126                       # Occupied blocks per task id
system.l2cache.tags.occ_task_id_blocks::1024         2970                       # Occupied blocks per task id
system.l2cache.tags.age_task_id_blocks_1022::0           16                       # Occupied blocks per task id
system.l2cache.tags.age_task_id_blocks_1022::1            5                       # Occupied blocks per task id
system.l2cache.tags.age_task_id_blocks_1022::2          869                       # Occupied blocks per task id
system.l2cache.tags.age_task_id_blocks_1022::3          236                       # Occupied blocks per task id
system.l2cache.tags.age_task_id_blocks_1024::0          168                       # Occupied blocks per task id
system.l2cache.tags.age_task_id_blocks_1024::1           38                       # Occupied blocks per task id
system.l2cache.tags.age_task_id_blocks_1024::2         2048                       # Occupied blocks per task id
system.l2cache.tags.age_task_id_blocks_1024::3          716                       # Occupied blocks per task id
system.l2cache.tags.occ_task_id_percent::1022     0.274902                       # Percentage of cache occupancy per task id
system.l2cache.tags.occ_task_id_percent::1024     0.725098                       # Percentage of cache occupancy per task id
system.l2cache.tags.tag_accesses                27158                       # Number of tag accesses
system.l2cache.tags.data_accesses               27158                       # Number of data accesses
system.mem_ctrl.pwrStateResidencyTicks::UNDEFINED    703186800                       # Cumulative time (in ticks) in various power states
system.mem_ctrl.bytes_read::.cpu.inst           26048                       # Number of bytes read from this memory
system.mem_ctrl.bytes_read::.cpu.data           18688                       # Number of bytes read from this memory
system.mem_ctrl.bytes_read::.cpu.dcache.prefetcher         3904                       # Number of bytes read from this memory
system.mem_ctrl.bytes_read::.l2cache.prefetcher         1216                       # Number of bytes read from this memory
system.mem_ctrl.bytes_read::total               49856                       # Number of bytes read from this memory
system.mem_ctrl.bytes_inst_read::.cpu.inst        26048                       # Number of instructions bytes read from this memory
system.mem_ctrl.bytes_inst_read::total          26048                       # Number of instructions bytes read from this memory
system.mem_ctrl.bytes_written::.writebacks         3776                       # Number of bytes written to this memory
system.mem_ctrl.bytes_written::total             3776                       # Number of bytes written to this memory
system.mem_ctrl.num_reads::.cpu.inst              407                       # Number of read requests responded to by this memory
system.mem_ctrl.num_reads::.cpu.data              292                       # Number of read requests responded to by this memory
system.mem_ctrl.num_reads::.cpu.dcache.prefetcher           61                       # Number of read requests responded to by this memory
system.mem_ctrl.num_reads::.l2cache.prefetcher           19                       # Number of read requests responded to by this memory
system.mem_ctrl.num_reads::total                  779                       # Number of read requests responded to by this memory
system.mem_ctrl.num_writes::.writebacks            59                       # Number of write requests responded to by this memory
system.mem_ctrl.num_writes::total                  59                       # Number of write requests responded to by this memory
system.mem_ctrl.bw_read::.cpu.inst           37042789                       # Total read bandwidth from this memory (bytes/s)
system.mem_ctrl.bw_read::.cpu.data           26576153                       # Total read bandwidth from this memory (bytes/s)
system.mem_ctrl.bw_read::.cpu.dcache.prefetcher      5551868                       # Total read bandwidth from this memory (bytes/s)
system.mem_ctrl.bw_read::.l2cache.prefetcher      1729270                       # Total read bandwidth from this memory (bytes/s)
system.mem_ctrl.bw_read::total               70900079                       # Total read bandwidth from this memory (bytes/s)
system.mem_ctrl.bw_inst_read::.cpu.inst      37042789                       # Instruction read bandwidth from this memory (bytes/s)
system.mem_ctrl.bw_inst_read::total          37042789                       # Instruction read bandwidth from this memory (bytes/s)
system.mem_ctrl.bw_write::.writebacks         5369839                       # Write bandwidth from this memory (bytes/s)
system.mem_ctrl.bw_write::total               5369839                       # Write bandwidth from this memory (bytes/s)
system.mem_ctrl.bw_total::.writebacks         5369839                       # Total bandwidth to/from this memory (bytes/s)
system.mem_ctrl.bw_total::.cpu.inst          37042789                       # Total bandwidth to/from this memory (bytes/s)
system.mem_ctrl.bw_total::.cpu.data          26576153                       # Total bandwidth to/from this memory (bytes/s)
system.mem_ctrl.bw_total::.cpu.dcache.prefetcher      5551868                       # Total bandwidth to/from this memory (bytes/s)
system.mem_ctrl.bw_total::.l2cache.prefetcher      1729270                       # Total bandwidth to/from this memory (bytes/s)
system.mem_ctrl.bw_total::total              76269919                       # Total bandwidth to/from this memory (bytes/s)

---------- End Simulation Statistics   ----------
