
---------- Begin Simulation Statistics ----------
final_tick                                 1161407200                       # Number of ticks from beginning of simulation (restored from checkpoints and never reset)
host_inst_rate                                 172105                       # Simulator instruction rate (inst/s)
host_mem_usage                                4406852                       # Number of bytes of host memory used
host_op_rate                                   305030                       # Simulator op (including micro ops) rate (op/s)
host_seconds                                    13.18                       # Real time elapsed on the host
host_tick_rate                               88098164                       # Simulator tick rate (ticks/s)
sim_freq                                 1000000000000                       # Frequency of simulated ticks
sim_insts                                     2268861                       # Number of instructions simulated
sim_ops                                       4021238                       # Number of ops (including micro ops) simulated
sim_seconds                                  0.001161                       # Number of seconds simulated
sim_ticks                                  1161407200                       # Number of ticks simulated
system.cpu.branchPred.BTBCorrect                    0                       # Number of correct BTB predictions (this stat may not work properly.
system.cpu.branchPred.BTBHitPct              0.000000                       # BTB Hit Percentage
system.cpu.branchPred.BTBHits                       0                       # Number of BTB hits
system.cpu.branchPred.BTBLookups               473038                       # Number of BTB lookups
system.cpu.branchPred.RASInCorrect                  8                       # Number of incorrect RAS predictions.
system.cpu.branchPred.condIncorrect             24464                       # Number of conditional branches incorrect
system.cpu.branchPred.condPredicted            496894                       # Number of conditional branches predicted
system.cpu.branchPred.indirectHits             254568                       # Number of indirect target hits.
system.cpu.branchPred.indirectLookups          473038                       # Number of indirect predictor lookups.
system.cpu.branchPred.indirectMisses           218470                       # Number of indirect misses.
system.cpu.branchPred.lookups                  529829                       # Number of BP lookups
system.cpu.branchPred.usedRAS                   14780                       # Number of times the RAS was used to get a target.
system.cpu.branchPredindirectMispredicted        12175                       # Number of mispredicted indirect branches.
system.cpu.cc_regfile_reads                   2607259                       # number of cc regfile reads
system.cpu.cc_regfile_writes                  2054794                       # number of cc regfile writes
system.cpu.commit.amos                              0                       # Number of atomic instructions committed
system.cpu.commit.branchMispredicts             24612                       # The number of times a branch was mispredicted
system.cpu.commit.branches                     383864                       # Number of branches committed
system.cpu.commit.bw_lim_events                671776                       # number cycles where commit BW limit reached
system.cpu.commit.commitNonSpecStalls             760                       # The number of times commit has been forced to stall to communicate backwards
system.cpu.commit.commitSquashedInsts          895242                       # The number of squashed insts skipped by commit
system.cpu.commit.committedInsts              2268861                       # Number of instructions committed
system.cpu.commit.committedOps                4021238                       # Number of ops (including micro ops) committed
system.cpu.commit.committed_per_cycle::samples      2493295                       # Number of insts commited each cycle
system.cpu.commit.committed_per_cycle::mean     1.612821                       # Number of insts commited each cycle
system.cpu.commit.committed_per_cycle::stdev     1.732922                       # Number of insts commited each cycle
system.cpu.commit.committed_per_cycle::underflows            0      0.00%      0.00% # Number of insts commited each cycle
system.cpu.commit.committed_per_cycle::0      1181583     47.39%     47.39% # Number of insts commited each cycle
system.cpu.commit.committed_per_cycle::1       196738      7.89%     55.28% # Number of insts commited each cycle
system.cpu.commit.committed_per_cycle::2       192198      7.71%     62.99% # Number of insts commited each cycle
system.cpu.commit.committed_per_cycle::3       251000     10.07%     73.06% # Number of insts commited each cycle
system.cpu.commit.committed_per_cycle::4       671776     26.94%    100.00% # Number of insts commited each cycle
system.cpu.commit.committed_per_cycle::overflows            0      0.00%    100.00% # Number of insts commited each cycle
system.cpu.commit.committed_per_cycle::min_value            0                       # Number of insts commited each cycle
system.cpu.commit.committed_per_cycle::max_value            4                       # Number of insts commited each cycle
system.cpu.commit.committed_per_cycle::total      2493295                       # Number of insts commited each cycle
system.cpu.commit.fp_insts                     100121                       # Number of committed floating point instructions.
system.cpu.commit.function_calls                12819                       # Number of function calls committed.
system.cpu.commit.int_insts                   3945327                       # Number of committed integer instructions.
system.cpu.commit.loads                        546498                       # Number of loads committed
system.cpu.commit.membars                           1                       # Number of memory barriers committed
system.cpu.commit.op_class_0::No_OpClass        22595      0.56%      0.56% # Class of committed instruction
system.cpu.commit.op_class_0::IntAlu          3137488     78.02%     78.58% # Class of committed instruction
system.cpu.commit.op_class_0::IntMult            2424      0.06%     78.65% # Class of committed instruction
system.cpu.commit.op_class_0::IntDiv            38160      0.95%     79.59% # Class of committed instruction
system.cpu.commit.op_class_0::FloatAdd           3924      0.10%     79.69% # Class of committed instruction
system.cpu.commit.op_class_0::FloatCmp              0      0.00%     79.69% # Class of committed instruction
system.cpu.commit.op_class_0::FloatCvt           1248      0.03%     79.72% # Class of committed instruction
system.cpu.commit.op_class_0::FloatMult             0      0.00%     79.72% # Class of committed instruction
system.cpu.commit.op_class_0::FloatMultAcc            0      0.00%     79.72% # Class of committed instruction
system.cpu.commit.op_class_0::FloatDiv              0      0.00%     79.72% # Class of committed instruction
system.cpu.commit.op_class_0::FloatMisc             0      0.00%     79.72% # Class of committed instruction
system.cpu.commit.op_class_0::FloatSqrt             0      0.00%     79.72% # Class of committed instruction
system.cpu.commit.op_class_0::SimdAdd            6274      0.16%     79.88% # Class of committed instruction
system.cpu.commit.op_class_0::SimdAddAcc            0      0.00%     79.88% # Class of committed instruction
system.cpu.commit.op_class_0::SimdAlu           15433      0.38%     80.26% # Class of committed instruction
system.cpu.commit.op_class_0::SimdCmp               0      0.00%     80.26% # Class of committed instruction
system.cpu.commit.op_class_0::SimdCvt           16358      0.41%     80.67% # Class of committed instruction
system.cpu.commit.op_class_0::SimdMisc          15879      0.39%     81.06% # Class of committed instruction
system.cpu.commit.op_class_0::SimdMult              0      0.00%     81.06% # Class of committed instruction
system.cpu.commit.op_class_0::SimdMultAcc            0      0.00%     81.06% # Class of committed instruction
system.cpu.commit.op_class_0::SimdShift          1218      0.03%     81.09% # Class of committed instruction
system.cpu.commit.op_class_0::SimdShiftAcc            0      0.00%     81.09% # Class of committed instruction
system.cpu.commit.op_class_0::SimdDiv               0      0.00%     81.09% # Class of committed instruction
system.cpu.commit.op_class_0::SimdSqrt              0      0.00%     81.09% # Class of committed instruction
system.cpu.commit.op_class_0::SimdFloatAdd            0      0.00%     81.09% # Class of committed instruction
system.cpu.commit.op_class_0::SimdFloatAlu            0      0.00%     81.09% # Class of committed instruction
system.cpu.commit.op_class_0::SimdFloatCmp            0      0.00%     81.09% # Class of committed instruction
system.cpu.commit.op_class_0::SimdFloatCvt            0      0.00%     81.09% # Class of committed instruction
system.cpu.commit.op_class_0::SimdFloatDiv            0      0.00%     81.09% # Class of committed instruction
system.cpu.commit.op_class_0::SimdFloatMisc            0      0.00%     81.09% # Class of committed instruction
system.cpu.commit.op_class_0::SimdFloatMult            0      0.00%     81.09% # Class of committed instruction
system.cpu.commit.op_class_0::SimdFloatMultAcc            0      0.00%     81.09% # Class of committed instruction
system.cpu.commit.op_class_0::SimdFloatSqrt            0      0.00%     81.09% # Class of committed instruction
system.cpu.commit.op_class_0::SimdReduceAdd            0      0.00%     81.09% # Class of committed instruction
system.cpu.commit.op_class_0::SimdReduceAlu            0      0.00%     81.09% # Class of committed instruction
system.cpu.commit.op_class_0::SimdReduceCmp            0      0.00%     81.09% # Class of committed instruction
system.cpu.commit.op_class_0::SimdFloatReduceAdd            0      0.00%     81.09% # Class of committed instruction
system.cpu.commit.op_class_0::SimdFloatReduceCmp            0      0.00%     81.09% # Class of committed instruction
system.cpu.commit.op_class_0::SimdAes               0      0.00%     81.09% # Class of committed instruction
system.cpu.commit.op_class_0::SimdAesMix            0      0.00%     81.09% # Class of committed instruction
system.cpu.commit.op_class_0::SimdSha1Hash            0      0.00%     81.09% # Class of committed instruction
system.cpu.commit.op_class_0::SimdSha1Hash2            0      0.00%     81.09% # Class of committed instruction
system.cpu.commit.op_class_0::SimdSha256Hash            0      0.00%     81.09% # Class of committed instruction
system.cpu.commit.op_class_0::SimdSha256Hash2            0      0.00%     81.09% # Class of committed instruction
system.cpu.commit.op_class_0::SimdShaSigma2            0      0.00%     81.09% # Class of committed instruction
system.cpu.commit.op_class_0::SimdShaSigma3            0      0.00%     81.09% # Class of committed instruction
system.cpu.commit.op_class_0::SimdPredAlu            0      0.00%     81.09% # Class of committed instruction
system.cpu.commit.op_class_0::MemRead          524032     13.03%     94.13% # Class of committed instruction
system.cpu.commit.op_class_0::MemWrite         200384      4.98%     99.11% # Class of committed instruction
system.cpu.commit.op_class_0::FloatMemRead        22466      0.56%     99.67% # Class of committed instruction
system.cpu.commit.op_class_0::FloatMemWrite        13355      0.33%    100.00% # Class of committed instruction
system.cpu.commit.op_class_0::IprAccess             0      0.00%    100.00% # Class of committed instruction
system.cpu.commit.op_class_0::InstPrefetch            0      0.00%    100.00% # Class of committed instruction
system.cpu.commit.op_class_0::total           4021238                       # Class of committed instruction
system.cpu.commit.refs                         760237                       # Number of memory references committed
system.cpu.commit.swp_count                         0                       # Number of s/w prefetches committed
system.cpu.commit.vec_insts                         0                       # Number of committed Vector instructions.
system.cpu.committedInsts                     2268861                       # Number of Instructions Simulated
system.cpu.committedOps                       4021238                       # Number of Ops (including micro ops) Simulated
system.cpu.cpi                               1.279725                       # CPI: Cycles Per Instruction
system.cpu.cpi_total                         1.279725                       # CPI: Total CPI of All Threads
system.cpu.dcache.prefetcher.num_hwpf_issued         7817                       # number of hwpf issued
system.cpu.dcache.prefetcher.pfBufferHit        32221                       # number of redundant prefetches already in prefetch queue
system.cpu.dcache.prefetcher.pfIdentified        47218                       # number of prefetch candidates identified
system.cpu.dcache.prefetcher.pfInCache              0                       # number of redundant prefetches already in cache/mshr dropped
system.cpu.dcache.prefetcher.pfRemovedFull            0                       # number of prefetches dropped due to prefetch queue size
system.cpu.dcache.prefetcher.pfSpanPage          4406                       # number of prefetches that crossed the page
system.cpu.decode.BlockedCycles               1035633                       # Number of cycles decode is blocked
system.cpu.decode.DecodedInsts                5133970                       # Number of instructions handled by decode
system.cpu.decode.IdleCycles                   328469                       # Number of cycles decode is idle
system.cpu.decode.RunCycles                   1259263                       # Number of cycles decode is running
system.cpu.decode.SquashCycles                  24678                       # Number of cycles decode is squashing
system.cpu.decode.UnblockCycles                 89510                       # Number of cycles decode is unblocking
system.cpu.dtb.rdAccesses                      631594                       # TLB accesses on read requests
system.cpu.dtb.rdMisses                          2072                       # TLB misses on read requests
system.cpu.dtb.wrAccesses                      232949                       # TLB accesses on write requests
system.cpu.dtb.wrMisses                           161                       # TLB misses on write requests
system.cpu.fetch.Branches                      529829                       # Number of branches that fetch encountered
system.cpu.fetch.CacheLines                    269330                       # Number of cache lines fetched
system.cpu.fetch.Cycles                       2349783                       # Number of cycles fetch has run and was not squashing or blocked
system.cpu.fetch.IcacheSquashes                  4757                       # Number of outstanding Icache misses that were squashed
system.cpu.fetch.Insts                        3044871                       # Number of instructions fetch has processed
system.cpu.fetch.MiscStallCycles                  184                       # Number of cycles fetch has spent waiting on interrupts, or bad addresses, or out of MSHRs
system.cpu.fetch.PendingQuiesceStallCycles            8                       # Number of stall cycles due to pending quiesce instructions
system.cpu.fetch.PendingTrapStallCycles          1036                       # Number of stall cycles due to pending traps
system.cpu.fetch.SquashCycles                   49356                       # Number of cycles fetch has spent squashing
system.cpu.fetch.branchRate                  0.182478                       # Number of branch fetches per cycle
system.cpu.fetch.icacheStallCycles             361864                       # Number of cycles fetch is stalled on an Icache miss
system.cpu.fetch.predictedBranches             269348                       # Number of branches that fetch has predicted taken
system.cpu.fetch.rate                        1.048683                       # Number of inst fetches per cycle
system.cpu.fetch.rateDist::samples            2737553                       # Number of instructions fetched each cycle (Total)
system.cpu.fetch.rateDist::mean              1.977477                       # Number of instructions fetched each cycle (Total)
system.cpu.fetch.rateDist::stdev             1.929395                       # Number of instructions fetched each cycle (Total)
system.cpu.fetch.rateDist::underflows               0      0.00%      0.00% # Number of instructions fetched each cycle (Total)
system.cpu.fetch.rateDist::0                  1269265     46.36%     46.36% # Number of instructions fetched each cycle (Total)
system.cpu.fetch.rateDist::1                    81723      2.99%     49.35% # Number of instructions fetched each cycle (Total)
system.cpu.fetch.rateDist::2                    65334      2.39%     51.74% # Number of instructions fetched each cycle (Total)
system.cpu.fetch.rateDist::3                    83866      3.06%     54.80% # Number of instructions fetched each cycle (Total)
system.cpu.fetch.rateDist::4                  1237365     45.20%    100.00% # Number of instructions fetched each cycle (Total)
system.cpu.fetch.rateDist::overflows                0      0.00%    100.00% # Number of instructions fetched each cycle (Total)
system.cpu.fetch.rateDist::min_value                0                       # Number of instructions fetched each cycle (Total)
system.cpu.fetch.rateDist::max_value                4                       # Number of instructions fetched each cycle (Total)
system.cpu.fetch.rateDist::total              2737553                       # Number of instructions fetched each cycle (Total)
system.cpu.fp_regfile_reads                    164764                       # number of floating regfile reads
system.cpu.fp_regfile_writes                    89387                       # number of floating regfile writes
system.cpu.fuPool.fu_ticks_busy::IntALU(0)    238318800                       # Total ticks fu was busy
system.cpu.fuPool.fu_ticks_busy::IntALU(1)    238318800                       # Total ticks fu was busy
system.cpu.fuPool.fu_ticks_busy::IntALU(2)    238318800                       # Total ticks fu was busy
system.cpu.fuPool.fu_ticks_busy::IntALU(3)    238318400                       # Total ticks fu was busy
system.cpu.fuPool.fu_ticks_busy::IntALU(4)    238318400                       # Total ticks fu was busy
system.cpu.fuPool.fu_ticks_busy::IntALU(5)    238318400                       # Total ticks fu was busy
system.cpu.fuPool.fu_ticks_busy::IntMultDiv(0)      8949200                       # Total ticks fu was busy
system.cpu.fuPool.fu_ticks_busy::IntMultDiv(1)      8948800                       # Total ticks fu was busy
system.cpu.fuPool.fu_ticks_busy::FP_ALU(0)       678800                       # Total ticks fu was busy
system.cpu.fuPool.fu_ticks_busy::FP_ALU(1)       678400                       # Total ticks fu was busy
system.cpu.fuPool.fu_ticks_busy::FP_ALU(2)       678000                       # Total ticks fu was busy
system.cpu.fuPool.fu_ticks_busy::FP_ALU(3)       678000                       # Total ticks fu was busy
system.cpu.fuPool.fu_ticks_busy::FP_MultDiv(0)            0                       # Total ticks fu was busy
system.cpu.fuPool.fu_ticks_busy::FP_MultDiv(1)            0                       # Total ticks fu was busy
system.cpu.fuPool.fu_ticks_busy::SIMD_Unit(0)      6355200                       # Total ticks fu was busy
system.cpu.fuPool.fu_ticks_busy::SIMD_Unit(1)      6364800                       # Total ticks fu was busy
system.cpu.fuPool.fu_ticks_busy::SIMD_Unit(2)      6304400                       # Total ticks fu was busy
system.cpu.fuPool.fu_ticks_busy::SIMD_Unit(3)      6166800                       # Total ticks fu was busy
system.cpu.fuPool.fu_ticks_busy::PredALU(0)            0                       # Total ticks fu was busy
system.cpu.fuPool.fu_ticks_busy::RdWrPort(0)     87978000                       # Total ticks fu was busy
system.cpu.fuPool.fu_ticks_busy::RdWrPort(1)     87826400                       # Total ticks fu was busy
system.cpu.fuPool.fu_ticks_busy::RdWrPort(2)     87916400                       # Total ticks fu was busy
system.cpu.fuPool.fu_ticks_busy::RdWrPort(3)     87828400                       # Total ticks fu was busy
system.cpu.fuPool.fu_ticks_busy::IprPort(0)            0                       # Total ticks fu was busy
system.cpu.fuPool.fu_ticks_busy::total     1827263200                       # Total ticks fu was busy
system.cpu.icache.prefetcher.num_hwpf_issued            0                       # number of hwpf issued
system.cpu.icache.prefetcher.pfBufferHit            0                       # number of redundant prefetches already in prefetch queue
system.cpu.icache.prefetcher.pfIdentified            0                       # number of prefetch candidates identified
system.cpu.icache.prefetcher.pfInCache              0                       # number of redundant prefetches already in cache/mshr dropped
system.cpu.icache.prefetcher.pfRemovedFull            0                       # number of prefetches dropped due to prefetch queue size
system.cpu.icache.prefetcher.pfSpanPage             0                       # number of prefetches that crossed the page
system.cpu.idleCycles                          165966                       # Total number of cycles that the CPU has spent unscheduled due to idling
system.cpu.iew.branchMispredicts                29079                       # Number of branch mispredicts detected at execute
system.cpu.iew.exec_branches                   415242                       # Number of branches executed
system.cpu.iew.exec_nop                             0                       # number of nop insts executed
system.cpu.iew.exec_rate                     1.571374                       # Inst execution rate
system.cpu.iew.exec_refs                       866185                       # number of memory reference insts executed
system.cpu.iew.exec_stores                     232937                       # Number of stores executed
system.cpu.iew.exec_swp                             0                       # number of swp insts executed
system.cpu.iew.iewBlockCycles                  690518                       # Number of cycles IEW is blocking
system.cpu.iew.iewDispLoadInsts                663579                       # Number of dispatched load instructions
system.cpu.iew.iewDispNonSpecInsts                973                       # Number of dispatched non-speculative instructions
system.cpu.iew.iewDispSquashedInsts               475                       # Number of squashed instructions skipped by dispatch
system.cpu.iew.iewDispStoreInsts               242868                       # Number of dispatched store instructions
system.cpu.iew.iewDispatchedInsts             4916414                       # Number of instructions dispatched to IQ
system.cpu.iew.iewExecLoadInsts                633248                       # Number of load instructions executed
system.cpu.iew.iewExecSquashedInsts             34470                       # Number of squashed instructions skipped in execute
system.cpu.iew.iewExecutedInsts               4562514                       # Number of executed instructions
system.cpu.iew.iewIQFullEvents                   3300                       # Number of times the IQ has become full, causing a stall
system.cpu.iew.iewIdleCycles                        0                       # Number of cycles IEW is idle
system.cpu.iew.iewLSQFullEvents                 10207                       # Number of times the LSQ has become full, causing a stall
system.cpu.iew.iewSquashCycles                  24678                       # Number of cycles IEW is squashing
system.cpu.iew.iewUnblockCycles                 16336                       # Number of cycles IEW is unblocking
system.cpu.iew.lsq.thread0.blockedLoads             0                       # Number of blocked loads due to partial load-store forwarding
system.cpu.iew.lsq.thread0.cacheBlocked           601                       # Number of times an access to memory failed due to the cache being blocked
system.cpu.iew.lsq.thread0.forwLoads            46758                       # Number of loads that had data forwarded from stores
system.cpu.iew.lsq.thread0.ignoredResponses          251                       # Number of memory responses ignored because the instruction is squashed
system.cpu.iew.lsq.thread0.invAddrLoads             0                       # Number of loads ignored due to an invalid address
system.cpu.iew.lsq.thread0.invAddrSwpfs             0                       # Number of software prefetches ignored due to an invalid address
system.cpu.iew.lsq.thread0.memOrderViolation           78                       # Number of memory ordering violations
system.cpu.iew.lsq.thread0.rescheduledLoads            7                       # Number of loads that were rescheduled
system.cpu.iew.lsq.thread0.squashedLoads       117079                       # Number of loads squashed
system.cpu.iew.lsq.thread0.squashedStores        29128                       # Number of stores squashed
system.cpu.iew.memOrderViolationEvents             78                       # Number of memory order violations
system.cpu.iew.predictedNotTakenIncorrect        20804                       # Number of branches that were predicted not taken incorrectly
system.cpu.iew.predictedTakenIncorrect           8275                       # Number of branches that were predicted taken incorrectly
system.cpu.iew.wb_consumers                   6301861                       # num instructions consuming a value
system.cpu.iew.wb_count                       4540114                       # cumulative count of insts written-back
system.cpu.iew.wb_fanout                     0.569773                       # average fanout of values written-back
system.cpu.iew.wb_producers                   3590628                       # num instructions producing a value
system.cpu.iew.wb_rate                       1.563659                       # insts written-back per cycle
system.cpu.iew.wb_sent                        4547235                       # cumulative count of insts sent to commit
system.cpu.int_regfile_reads                  7044240                       # number of integer regfile reads
system.cpu.int_regfile_writes                 3880246                       # number of integer regfile writes
system.cpu.ipc                               0.781418                       # IPC: Instructions Per Cycle
system.cpu.ipc_total                         0.781418                       # IPC: Total IPC of All Threads
system.cpu.iq.FU_type_0::No_OpClass             28826      0.63%      0.63% # Type of FU issued
system.cpu.iq.FU_type_0::IntAlu               3574781     77.76%     78.39% # Type of FU issued
system.cpu.iq.FU_type_0::IntMult                 2453      0.05%     78.44% # Type of FU issued
system.cpu.iq.FU_type_0::IntDiv                 42292      0.92%     79.36% # Type of FU issued
system.cpu.iq.FU_type_0::FloatAdd                5489      0.12%     79.48% # Type of FU issued
system.cpu.iq.FU_type_0::FloatCmp                   0      0.00%     79.48% # Type of FU issued
system.cpu.iq.FU_type_0::FloatCvt                1294      0.03%     79.51% # Type of FU issued
system.cpu.iq.FU_type_0::FloatMult                  0      0.00%     79.51% # Type of FU issued
system.cpu.iq.FU_type_0::FloatMultAcc               0      0.00%     79.51% # Type of FU issued
system.cpu.iq.FU_type_0::FloatDiv                   0      0.00%     79.51% # Type of FU issued
system.cpu.iq.FU_type_0::FloatMisc                  0      0.00%     79.51% # Type of FU issued
system.cpu.iq.FU_type_0::FloatSqrt                  0      0.00%     79.51% # Type of FU issued
system.cpu.iq.FU_type_0::SimdAdd                 6934      0.15%     79.66% # Type of FU issued
system.cpu.iq.FU_type_0::SimdAddAcc                 0      0.00%     79.66% # Type of FU issued
system.cpu.iq.FU_type_0::SimdAlu                19140      0.42%     80.08% # Type of FU issued
system.cpu.iq.FU_type_0::SimdCmp                    0      0.00%     80.08% # Type of FU issued
system.cpu.iq.FU_type_0::SimdCvt                18184      0.40%     80.47% # Type of FU issued
system.cpu.iq.FU_type_0::SimdMisc               16476      0.36%     80.83% # Type of FU issued
system.cpu.iq.FU_type_0::SimdMult                   0      0.00%     80.83% # Type of FU issued
system.cpu.iq.FU_type_0::SimdMultAcc                0      0.00%     80.83% # Type of FU issued
system.cpu.iq.FU_type_0::SimdShift               2244      0.05%     80.88% # Type of FU issued
system.cpu.iq.FU_type_0::SimdShiftAcc               0      0.00%     80.88% # Type of FU issued
system.cpu.iq.FU_type_0::SimdDiv                    0      0.00%     80.88% # Type of FU issued
system.cpu.iq.FU_type_0::SimdSqrt                   0      0.00%     80.88% # Type of FU issued
system.cpu.iq.FU_type_0::SimdFloatAdd               0      0.00%     80.88% # Type of FU issued
system.cpu.iq.FU_type_0::SimdFloatAlu               0      0.00%     80.88% # Type of FU issued
system.cpu.iq.FU_type_0::SimdFloatCmp               0      0.00%     80.88% # Type of FU issued
system.cpu.iq.FU_type_0::SimdFloatCvt               0      0.00%     80.88% # Type of FU issued
system.cpu.iq.FU_type_0::SimdFloatDiv               0      0.00%     80.88% # Type of FU issued
system.cpu.iq.FU_type_0::SimdFloatMisc              0      0.00%     80.88% # Type of FU issued
system.cpu.iq.FU_type_0::SimdFloatMult              0      0.00%     80.88% # Type of FU issued
system.cpu.iq.FU_type_0::SimdFloatMultAcc            0      0.00%     80.88% # Type of FU issued
system.cpu.iq.FU_type_0::SimdFloatSqrt              0      0.00%     80.88% # Type of FU issued
system.cpu.iq.FU_type_0::SimdReduceAdd              0      0.00%     80.88% # Type of FU issued
system.cpu.iq.FU_type_0::SimdReduceAlu              0      0.00%     80.88% # Type of FU issued
system.cpu.iq.FU_type_0::SimdReduceCmp              0      0.00%     80.88% # Type of FU issued
system.cpu.iq.FU_type_0::SimdFloatReduceAdd            0      0.00%     80.88% # Type of FU issued
system.cpu.iq.FU_type_0::SimdFloatReduceCmp            0      0.00%     80.88% # Type of FU issued
system.cpu.iq.FU_type_0::SimdAes                    0      0.00%     80.88% # Type of FU issued
system.cpu.iq.FU_type_0::SimdAesMix                 0      0.00%     80.88% # Type of FU issued
system.cpu.iq.FU_type_0::SimdSha1Hash               0      0.00%     80.88% # Type of FU issued
system.cpu.iq.FU_type_0::SimdSha1Hash2              0      0.00%     80.88% # Type of FU issued
system.cpu.iq.FU_type_0::SimdSha256Hash             0      0.00%     80.88% # Type of FU issued
system.cpu.iq.FU_type_0::SimdSha256Hash2            0      0.00%     80.88% # Type of FU issued
system.cpu.iq.FU_type_0::SimdShaSigma2              0      0.00%     80.88% # Type of FU issued
system.cpu.iq.FU_type_0::SimdShaSigma3              0      0.00%     80.88% # Type of FU issued
system.cpu.iq.FU_type_0::SimdPredAlu                0      0.00%     80.88% # Type of FU issued
system.cpu.iq.FU_type_0::MemRead               614768     13.37%     94.25% # Type of FU issued
system.cpu.iq.FU_type_0::MemWrite              220806      4.80%     99.06% # Type of FU issued
system.cpu.iq.FU_type_0::FloatMemRead           28625      0.62%     99.68% # Type of FU issued
system.cpu.iq.FU_type_0::FloatMemWrite          14676      0.32%    100.00% # Type of FU issued
system.cpu.iq.FU_type_0::IprAccess                  0      0.00%    100.00% # Type of FU issued
system.cpu.iq.FU_type_0::InstPrefetch               0      0.00%    100.00% # Type of FU issued
system.cpu.iq.FU_type_0::total                4596988                       # Type of FU issued
system.cpu.iq.fp_alu_accesses                  117192                       # Number of floating point alu accesses
system.cpu.iq.fp_inst_queue_reads              235736                       # Number of floating instruction queue reads
system.cpu.iq.fp_inst_queue_wakeup_accesses       113506                       # Number of floating instruction queue wakeup accesses
system.cpu.iq.fp_inst_queue_writes             159325                       # Number of floating instruction queue writes
system.cpu.iq.fu_busy_cnt                           0                       # FU busy when requested
system.cpu.iq.fu_busy_rate                          0                       # FU busy rate (busy events/executed inst)
system.cpu.iq.fu_full::No_OpClass                   0                       # attempts to use FU when none available
system.cpu.iq.fu_full::IntAlu                       0                       # attempts to use FU when none available
system.cpu.iq.fu_full::IntMult                      0                       # attempts to use FU when none available
system.cpu.iq.fu_full::IntDiv                       0                       # attempts to use FU when none available
system.cpu.iq.fu_full::FloatAdd                     0                       # attempts to use FU when none available
system.cpu.iq.fu_full::FloatCmp                     0                       # attempts to use FU when none available
system.cpu.iq.fu_full::FloatCvt                     0                       # attempts to use FU when none available
system.cpu.iq.fu_full::FloatMult                    0                       # attempts to use FU when none available
system.cpu.iq.fu_full::FloatMultAcc                 0                       # attempts to use FU when none available
system.cpu.iq.fu_full::FloatDiv                     0                       # attempts to use FU when none available
system.cpu.iq.fu_full::FloatMisc                    0                       # attempts to use FU when none available
system.cpu.iq.fu_full::FloatSqrt                    0                       # attempts to use FU when none available
system.cpu.iq.fu_full::SimdAdd                      0                       # attempts to use FU when none available
system.cpu.iq.fu_full::SimdAddAcc                   0                       # attempts to use FU when none available
system.cpu.iq.fu_full::SimdAlu                      0                       # attempts to use FU when none available
system.cpu.iq.fu_full::SimdCmp                      0                       # attempts to use FU when none available
system.cpu.iq.fu_full::SimdCvt                      0                       # attempts to use FU when none available
system.cpu.iq.fu_full::SimdMisc                     0                       # attempts to use FU when none available
system.cpu.iq.fu_full::SimdMult                     0                       # attempts to use FU when none available
system.cpu.iq.fu_full::SimdMultAcc                  0                       # attempts to use FU when none available
system.cpu.iq.fu_full::SimdShift                    0                       # attempts to use FU when none available
system.cpu.iq.fu_full::SimdShiftAcc                 0                       # attempts to use FU when none available
system.cpu.iq.fu_full::SimdDiv                      0                       # attempts to use FU when none available
system.cpu.iq.fu_full::SimdSqrt                     0                       # attempts to use FU when none available
system.cpu.iq.fu_full::SimdFloatAdd                 0                       # attempts to use FU when none available
system.cpu.iq.fu_full::SimdFloatAlu                 0                       # attempts to use FU when none available
system.cpu.iq.fu_full::SimdFloatCmp                 0                       # attempts to use FU when none available
system.cpu.iq.fu_full::SimdFloatCvt                 0                       # attempts to use FU when none available
system.cpu.iq.fu_full::SimdFloatDiv                 0                       # attempts to use FU when none available
system.cpu.iq.fu_full::SimdFloatMisc                0                       # attempts to use FU when none available
system.cpu.iq.fu_full::SimdFloatMult                0                       # attempts to use FU when none available
system.cpu.iq.fu_full::SimdFloatMultAcc             0                       # attempts to use FU when none available
system.cpu.iq.fu_full::SimdFloatSqrt                0                       # attempts to use FU when none available
system.cpu.iq.fu_full::SimdReduceAdd                0                       # attempts to use FU when none available
system.cpu.iq.fu_full::SimdReduceAlu                0                       # attempts to use FU when none available
system.cpu.iq.fu_full::SimdReduceCmp                0                       # attempts to use FU when none available
system.cpu.iq.fu_full::SimdFloatReduceAdd            0                       # attempts to use FU when none available
system.cpu.iq.fu_full::SimdFloatReduceCmp            0                       # attempts to use FU when none available
system.cpu.iq.fu_full::SimdAes                      0                       # attempts to use FU when none available
system.cpu.iq.fu_full::SimdAesMix                   0                       # attempts to use FU when none available
system.cpu.iq.fu_full::SimdSha1Hash                 0                       # attempts to use FU when none available
system.cpu.iq.fu_full::SimdSha1Hash2                0                       # attempts to use FU when none available
system.cpu.iq.fu_full::SimdSha256Hash               0                       # attempts to use FU when none available
system.cpu.iq.fu_full::SimdSha256Hash2              0                       # attempts to use FU when none available
system.cpu.iq.fu_full::SimdShaSigma2                0                       # attempts to use FU when none available
system.cpu.iq.fu_full::SimdShaSigma3                0                       # attempts to use FU when none available
system.cpu.iq.fu_full::SimdPredAlu                  0                       # attempts to use FU when none available
system.cpu.iq.fu_full::MemRead                      0                       # attempts to use FU when none available
system.cpu.iq.fu_full::MemWrite                     0                       # attempts to use FU when none available
system.cpu.iq.fu_full::FloatMemRead                 0                       # attempts to use FU when none available
system.cpu.iq.fu_full::FloatMemWrite                0                       # attempts to use FU when none available
system.cpu.iq.fu_full::IprAccess                    0                       # attempts to use FU when none available
system.cpu.iq.fu_full::InstPrefetch                 0                       # attempts to use FU when none available
system.cpu.iq.int_alu_accesses                4450970                       # Number of integer alu accesses
system.cpu.iq.int_inst_queue_reads           11713909                       # Number of integer instruction queue reads
system.cpu.iq.int_inst_queue_wakeup_accesses      4426608                       # Number of integer instruction queue wakeup accesses
system.cpu.iq.int_inst_queue_writes           5652330                       # Number of integer instruction queue writes
system.cpu.iq.iqInstsAdded                    4915233                       # Number of instructions added to the IQ (excludes non-spec)
system.cpu.iq.iqInstsIssued                   4596988                       # Number of instructions issued
system.cpu.iq.iqNonSpecInstsAdded                1181                       # Number of non-speculative instructions added to the IQ
system.cpu.iq.iqSquashedInstsExamined          895165                       # Number of squashed instructions iterated over during squash; mainly for profiling
system.cpu.iq.iqSquashedInstsIssued             18120                       # Number of squashed instructions issued
system.cpu.iq.iqSquashedNonSpecRemoved            421                       # Number of squashed non-spec instructions that were removed
system.cpu.iq.iqSquashedOperandsExamined      1321943                       # Number of squashed operands that are examined and possibly removed from graph
system.cpu.iq.issued_per_cycle::samples       2737553                       # Number of insts issued each cycle
system.cpu.iq.issued_per_cycle::mean         1.679233                       # Number of insts issued each cycle
system.cpu.iq.issued_per_cycle::stdev        1.670821                       # Number of insts issued each cycle
system.cpu.iq.issued_per_cycle::underflows            0      0.00%      0.00% # Number of insts issued each cycle
system.cpu.iq.issued_per_cycle::0             1187018     43.36%     43.36% # Number of insts issued each cycle
system.cpu.iq.issued_per_cycle::1              187253      6.84%     50.20% # Number of insts issued each cycle
system.cpu.iq.issued_per_cycle::2              332832     12.16%     62.36% # Number of insts issued each cycle
system.cpu.iq.issued_per_cycle::3              377729     13.80%     76.16% # Number of insts issued each cycle
system.cpu.iq.issued_per_cycle::4              652721     23.84%    100.00% # Number of insts issued each cycle
system.cpu.iq.issued_per_cycle::overflows            0      0.00%    100.00% # Number of insts issued each cycle
system.cpu.iq.issued_per_cycle::min_value            0                       # Number of insts issued each cycle
system.cpu.iq.issued_per_cycle::max_value            4                       # Number of insts issued each cycle
system.cpu.iq.issued_per_cycle::total         2737553                       # Number of insts issued each cycle
system.cpu.iq.rate                           1.583247                       # Inst issue rate
system.cpu.iq.vec_alu_accesses                      0                       # Number of vector alu accesses
system.cpu.iq.vec_inst_queue_reads                  0                       # Number of vector instruction queue reads
system.cpu.iq.vec_inst_queue_wakeup_accesses            0                       # Number of vector instruction queue wakeup accesses
system.cpu.iq.vec_inst_queue_writes                 0                       # Number of vector instruction queue writes
system.cpu.itb.rdAccesses                           0                       # TLB accesses on read requests
system.cpu.itb.rdMisses                             0                       # TLB misses on read requests
system.cpu.itb.wrAccesses                      269500                       # TLB accesses on write requests
system.cpu.itb.wrMisses                           419                       # TLB misses on write requests
system.cpu.memDep0.conflictingLoads             13759                       # Number of conflicting loads.
system.cpu.memDep0.conflictingStores             7110                       # Number of conflicting stores.
system.cpu.memDep0.insertedLoads               663579                       # Number of loads inserted to the mem dependence unit.
system.cpu.memDep0.insertedStores              242868                       # Number of stores inserted to the mem dependence unit.
system.cpu.misc_regfile_reads                 1735884                       # number of misc regfile reads
system.cpu.misc_regfile_writes                    702                       # number of misc regfile writes
system.cpu.numCycles                          2903519                       # number of cpu cycles simulated
system.cpu.numWorkItemsCompleted                    0                       # number of work items this cpu completed
system.cpu.numWorkItemsStarted                      0                       # number of work items this cpu started
system.cpu.process.numSyscalls                     57                       # Number of system calls
system.cpu.rename.BlockCycles                  845313                       # Number of cycles rename is blocking
system.cpu.rename.CommittedMaps               5386850                       # Number of HB maps that are committed
system.cpu.rename.FullRegisterEvents               27                       # Number of times there has been no free registers
system.cpu.rename.IQFullEvents                  46606                       # Number of times rename has blocked due to IQ full
system.cpu.rename.IdleCycles                   379095                       # Number of cycles rename is idle
system.cpu.rename.LQFullEvents                  20824                       # Number of times rename has blocked due to LQ full
system.cpu.rename.ROBFullEvents                  4552                       # Number of times rename has blocked due to ROB full
system.cpu.rename.RenameLookups              13190491                       # Number of register rename lookups that rename has made
system.cpu.rename.RenamedInsts                5058408                       # Number of instructions processed by rename
system.cpu.rename.RenamedOperands             6796211                       # Number of destination operands rename has renamed
system.cpu.rename.RunCycles                   1289458                       # Number of cycles rename is running
system.cpu.rename.SQFullEvents                  73626                       # Number of times rename has blocked due to SQ full
system.cpu.rename.SquashCycles                  24678                       # Number of cycles rename is squashing
system.cpu.rename.UnblockCycles                179038                       # Number of cycles rename is unblocking
system.cpu.rename.UndoneMaps                  1409335                       # Number of HB maps that are undone due to squashing
system.cpu.rename.fp_rename_lookups            201430                       # Number of floating rename lookups
system.cpu.rename.int_rename_lookups          7988699                       # Number of integer rename lookups
system.cpu.rename.serializeStallCycles          19971                       # count of cycles rename stalled for serializing inst
system.cpu.rename.serializingInsts                900                       # count of serializing insts renamed
system.cpu.rename.skidInsts                    209335                       # count of insts added to the skid buffer
system.cpu.rename.tempSerializingInsts            952                       # count of temporary serializing insts renamed
system.cpu.rob.rob_reads                      6737999                       # The number of ROB reads
system.cpu.rob.rob_writes                    10078160                       # The number of ROB writes
system.cpu.timesIdled                            1644                       # Number of times that the entire CPU went into an idle state and unscheduled itself
system.l2bus.snoop_filter.hit_multi_requests            7                       # Number of requests hitting in the snoop filter with multiple (>1) holders of the requested data.
system.l2bus.snoop_filter.hit_multi_snoops            0                       # Number of snoops hitting in the snoop filter with multiple (>1) holders of the requested data.
system.l2bus.snoop_filter.hit_single_requests        18568                       # Number of requests hitting in the snoop filter with a single holder of the requested data.
system.l2bus.snoop_filter.hit_single_snoops          442                       # Number of snoops hitting in the snoop filter with a single holder of the requested data.
system.l2bus.snoop_filter.tot_requests          38414                       # Total number of requests made to the snoop filter.
system.l2bus.snoop_filter.tot_snoops              442                       # Total number of snoops made to the snoop filter.
system.l2cache.prefetcher.num_hwpf_issued          681                       # number of hwpf issued
system.l2cache.prefetcher.pfBufferHit               0                       # number of redundant prefetches already in prefetch queue
system.l2cache.prefetcher.pfIdentified            681                       # number of prefetch candidates identified
system.l2cache.prefetcher.pfInCache                 0                       # number of redundant prefetches already in cache/mshr dropped
system.l2cache.prefetcher.pfRemovedFull             0                       # number of prefetches dropped due to prefetch queue size
system.l2cache.prefetcher.pfSpanPage              123                       # number of prefetches that crossed the page
system.membus.snoop_filter.hit_multi_requests            0                       # Number of requests hitting in the snoop filter with multiple (>1) holders of the requested data.
system.membus.snoop_filter.hit_multi_snoops            0                       # Number of snoops hitting in the snoop filter with multiple (>1) holders of the requested data.
system.membus.snoop_filter.hit_single_requests         9487                       # Number of requests hitting in the snoop filter with a single holder of the requested data.
system.membus.snoop_filter.hit_single_snoops            0                       # Number of snoops hitting in the snoop filter with a single holder of the requested data.
system.membus.snoop_filter.tot_requests         23092                       # Total number of requests made to the snoop filter.
system.membus.snoop_filter.tot_snoops               0                       # Total number of snoops made to the snoop filter.
system.membus.pwrStateResidencyTicks::UNDEFINED   1161407200                       # Cumulative time (in ticks) in various power states
system.membus.trans_dist::ReadResp              12246                       # Transaction distribution
system.membus.trans_dist::WritebackDirty         1359                       # Transaction distribution
system.membus.trans_dist::CleanEvict             8128                       # Transaction distribution
system.membus.trans_dist::ReadExReq              1359                       # Transaction distribution
system.membus.trans_dist::ReadExResp             1359                       # Transaction distribution
system.membus.trans_dist::ReadSharedReq         12246                       # Transaction distribution
system.membus.pkt_count_system.l2cache.mem_side::system.mem_ctrl.port        36697                       # Packet count per connected master and slave (bytes)
system.membus.pkt_count_system.l2cache.mem_side::total        36697                       # Packet count per connected master and slave (bytes)
system.membus.pkt_count::total                  36697                       # Packet count per connected master and slave (bytes)
system.membus.pkt_size_system.l2cache.mem_side::system.mem_ctrl.port       957696                       # Cumulative packet size per connected master and slave (bytes)
system.membus.pkt_size_system.l2cache.mem_side::total       957696                       # Cumulative packet size per connected master and slave (bytes)
system.membus.pkt_size::total                  957696                       # Cumulative packet size per connected master and slave (bytes)
system.membus.snoops                                0                       # Total snoops (count)
system.membus.snoopTraffic                          0                       # Total snoop traffic (bytes)
system.membus.snoop_fanout::samples             13605                       # Request fanout histogram
system.membus.snoop_fanout::mean                    0                       # Request fanout histogram
system.membus.snoop_fanout::stdev                   0                       # Request fanout histogram
system.membus.snoop_fanout::underflows              0      0.00%      0.00% # Request fanout histogram
system.membus.snoop_fanout::0                   13605    100.00%    100.00% # Request fanout histogram
system.membus.snoop_fanout::1                       0      0.00%    100.00% # Request fanout histogram
system.membus.snoop_fanout::overflows               0      0.00%    100.00% # Request fanout histogram
system.membus.snoop_fanout::min_value               0                       # Request fanout histogram
system.membus.snoop_fanout::max_value               0                       # Request fanout histogram
system.membus.snoop_fanout::total               13605                       # Request fanout histogram
system.membus.reqLayer2.occupancy            11437616                       # Layer occupancy (ticks)
system.membus.reqLayer2.utilization               1.0                       # Layer utilization (%)
system.membus.respLayer0.occupancy           29494684                       # Layer occupancy (ticks)
system.membus.respLayer0.utilization              2.5                       # Layer utilization (%)
system.l2bus.pwrStateResidencyTicks::UNDEFINED   1161407200                       # Cumulative time (in ticks) in various power states
system.l2bus.trans_dist::ReadResp               17748                       # Transaction distribution
system.l2bus.trans_dist::WritebackDirty          4136                       # Transaction distribution
system.l2bus.trans_dist::CleanEvict             24006                       # Transaction distribution
system.l2bus.trans_dist::HardPFReq                962                       # Transaction distribution
system.l2bus.trans_dist::ReadExReq               2099                       # Transaction distribution
system.l2bus.trans_dist::ReadExResp              2099                       # Transaction distribution
system.l2bus.trans_dist::ReadSharedReq          17748                       # Transaction distribution
system.l2bus.pkt_count_system.cpu.icache.mem_side::system.l2cache.cpu_side         8448                       # Packet count per connected master and slave (bytes)
system.l2bus.pkt_count_system.cpu.dcache.mem_side::system.l2cache.cpu_side        49811                       # Packet count per connected master and slave (bytes)
system.l2bus.pkt_count::total                   58259                       # Packet count per connected master and slave (bytes)
system.l2bus.pkt_size_system.cpu.icache.mem_side::system.l2cache.cpu_side       185600                       # Cumulative packet size per connected master and slave (bytes)
system.l2bus.pkt_size_system.cpu.dcache.mem_side::system.l2cache.cpu_side      1262208                       # Cumulative packet size per connected master and slave (bytes)
system.l2bus.pkt_size::total                  1447808                       # Cumulative packet size per connected master and slave (bytes)
system.l2bus.snoops                             10539                       # Total snoops (count)
system.l2bus.snoopTraffic                       87104                       # Total snoop traffic (bytes)
system.l2bus.snoop_fanout::samples              30384                       # Request fanout histogram
system.l2bus.snoop_fanout::mean              0.014810                       # Request fanout histogram
system.l2bus.snoop_fanout::stdev             0.120796                       # Request fanout histogram
system.l2bus.snoop_fanout::underflows               0      0.00%      0.00% # Request fanout histogram
system.l2bus.snoop_fanout::0                    29934     98.52%     98.52% # Request fanout histogram
system.l2bus.snoop_fanout::1                      450      1.48%    100.00% # Request fanout histogram
system.l2bus.snoop_fanout::2                        0      0.00%    100.00% # Request fanout histogram
system.l2bus.snoop_fanout::overflows                0      0.00%    100.00% # Request fanout histogram
system.l2bus.snoop_fanout::min_value                0                       # Request fanout histogram
system.l2bus.snoop_fanout::max_value                1                       # Request fanout histogram
system.l2bus.snoop_fanout::total                30384                       # Request fanout histogram
system.l2bus.respLayer1.occupancy            20334399                       # Layer occupancy (ticks)
system.l2bus.respLayer1.utilization               1.8                       # Layer utilization (%)
system.l2bus.reqLayer0.occupancy             18982815                       # Layer occupancy (ticks)
system.l2bus.reqLayer0.utilization                1.6                       # Layer utilization (%)
system.l2bus.respLayer0.occupancy             3482400                       # Layer occupancy (ticks)
system.l2bus.respLayer0.utilization               0.3                       # Layer utilization (%)
system.clk_domain.clock                           400                       # Clock period in ticks
system.clk_domain.voltage_domain.voltage            1                       # Voltage in Volts
system.cpu.pwrStateResidencyTicks::ON      1161407200                       # Cumulative time (in ticks) in various power states
system.cpu.icache.pwrStateResidencyTicks::UNDEFINED   1161407200                       # Cumulative time (in ticks) in various power states
system.cpu.icache.demand_hits::.cpu.inst       265695                       # number of demand (read+write) hits
system.cpu.icache.demand_hits::total           265695                       # number of demand (read+write) hits
system.cpu.icache.overall_hits::.cpu.inst       265695                       # number of overall hits
system.cpu.icache.overall_hits::total          265695                       # number of overall hits
system.cpu.icache.demand_misses::.cpu.inst         3634                       # number of demand (read+write) misses
system.cpu.icache.demand_misses::total           3634                       # number of demand (read+write) misses
system.cpu.icache.overall_misses::.cpu.inst         3634                       # number of overall misses
system.cpu.icache.overall_misses::total          3634                       # number of overall misses
system.cpu.icache.demand_miss_latency::.cpu.inst    181482000                       # number of demand (read+write) miss cycles
system.cpu.icache.demand_miss_latency::total    181482000                       # number of demand (read+write) miss cycles
system.cpu.icache.overall_miss_latency::.cpu.inst    181482000                       # number of overall miss cycles
system.cpu.icache.overall_miss_latency::total    181482000                       # number of overall miss cycles
system.cpu.icache.demand_accesses::.cpu.inst       269329                       # number of demand (read+write) accesses
system.cpu.icache.demand_accesses::total       269329                       # number of demand (read+write) accesses
system.cpu.icache.overall_accesses::.cpu.inst       269329                       # number of overall (read+write) accesses
system.cpu.icache.overall_accesses::total       269329                       # number of overall (read+write) accesses
system.cpu.icache.demand_miss_rate::.cpu.inst     0.013493                       # miss rate for demand accesses
system.cpu.icache.demand_miss_rate::total     0.013493                       # miss rate for demand accesses
system.cpu.icache.overall_miss_rate::.cpu.inst     0.013493                       # miss rate for overall accesses
system.cpu.icache.overall_miss_rate::total     0.013493                       # miss rate for overall accesses
system.cpu.icache.demand_avg_miss_latency::.cpu.inst 49940.011007                       # average overall miss latency
system.cpu.icache.demand_avg_miss_latency::total 49940.011007                       # average overall miss latency
system.cpu.icache.overall_avg_miss_latency::.cpu.inst 49940.011007                       # average overall miss latency
system.cpu.icache.overall_avg_miss_latency::total 49940.011007                       # average overall miss latency
system.cpu.icache.blocked_cycles::no_mshrs           63                       # number of cycles access was blocked
system.cpu.icache.blocked_cycles::no_targets            0                       # number of cycles access was blocked
system.cpu.icache.blocked::no_mshrs                 3                       # number of cycles access was blocked
system.cpu.icache.blocked::no_targets               0                       # number of cycles access was blocked
system.cpu.icache.avg_blocked_cycles::no_mshrs           21                       # average number of cycles each access was blocked
system.cpu.icache.avg_blocked_cycles::no_targets          nan                       # average number of cycles each access was blocked
system.cpu.icache.demand_mshr_hits::.cpu.inst          732                       # number of demand (read+write) MSHR hits
system.cpu.icache.demand_mshr_hits::total          732                       # number of demand (read+write) MSHR hits
system.cpu.icache.overall_mshr_hits::.cpu.inst          732                       # number of overall MSHR hits
system.cpu.icache.overall_mshr_hits::total          732                       # number of overall MSHR hits
system.cpu.icache.demand_mshr_misses::.cpu.inst         2902                       # number of demand (read+write) MSHR misses
system.cpu.icache.demand_mshr_misses::total         2902                       # number of demand (read+write) MSHR misses
system.cpu.icache.overall_mshr_misses::.cpu.inst         2902                       # number of overall MSHR misses
system.cpu.icache.overall_mshr_misses::total         2902                       # number of overall MSHR misses
system.cpu.icache.demand_mshr_miss_latency::.cpu.inst    145203600                       # number of demand (read+write) MSHR miss cycles
system.cpu.icache.demand_mshr_miss_latency::total    145203600                       # number of demand (read+write) MSHR miss cycles
system.cpu.icache.overall_mshr_miss_latency::.cpu.inst    145203600                       # number of overall MSHR miss cycles
system.cpu.icache.overall_mshr_miss_latency::total    145203600                       # number of overall MSHR miss cycles
system.cpu.icache.demand_mshr_miss_rate::.cpu.inst     0.010775                       # mshr miss rate for demand accesses
system.cpu.icache.demand_mshr_miss_rate::total     0.010775                       # mshr miss rate for demand accesses
system.cpu.icache.overall_mshr_miss_rate::.cpu.inst     0.010775                       # mshr miss rate for overall accesses
system.cpu.icache.overall_mshr_miss_rate::total     0.010775                       # mshr miss rate for overall accesses
system.cpu.icache.demand_avg_mshr_miss_latency::.cpu.inst 50035.699518                       # average overall mshr miss latency
system.cpu.icache.demand_avg_mshr_miss_latency::total 50035.699518                       # average overall mshr miss latency
system.cpu.icache.overall_avg_mshr_miss_latency::.cpu.inst 50035.699518                       # average overall mshr miss latency
system.cpu.icache.overall_avg_mshr_miss_latency::total 50035.699518                       # average overall mshr miss latency
system.cpu.icache.replacements                   2646                       # number of replacements
system.cpu.icache.ReadReq_hits::.cpu.inst       265695                       # number of ReadReq hits
system.cpu.icache.ReadReq_hits::total          265695                       # number of ReadReq hits
system.cpu.icache.ReadReq_misses::.cpu.inst         3634                       # number of ReadReq misses
system.cpu.icache.ReadReq_misses::total          3634                       # number of ReadReq misses
system.cpu.icache.ReadReq_miss_latency::.cpu.inst    181482000                       # number of ReadReq miss cycles
system.cpu.icache.ReadReq_miss_latency::total    181482000                       # number of ReadReq miss cycles
system.cpu.icache.ReadReq_accesses::.cpu.inst       269329                       # number of ReadReq accesses(hits+misses)
system.cpu.icache.ReadReq_accesses::total       269329                       # number of ReadReq accesses(hits+misses)
system.cpu.icache.ReadReq_miss_rate::.cpu.inst     0.013493                       # miss rate for ReadReq accesses
system.cpu.icache.ReadReq_miss_rate::total     0.013493                       # miss rate for ReadReq accesses
system.cpu.icache.ReadReq_avg_miss_latency::.cpu.inst 49940.011007                       # average ReadReq miss latency
system.cpu.icache.ReadReq_avg_miss_latency::total 49940.011007                       # average ReadReq miss latency
system.cpu.icache.ReadReq_mshr_hits::.cpu.inst          732                       # number of ReadReq MSHR hits
system.cpu.icache.ReadReq_mshr_hits::total          732                       # number of ReadReq MSHR hits
system.cpu.icache.ReadReq_mshr_misses::.cpu.inst         2902                       # number of ReadReq MSHR misses
system.cpu.icache.ReadReq_mshr_misses::total         2902                       # number of ReadReq MSHR misses
system.cpu.icache.ReadReq_mshr_miss_latency::.cpu.inst    145203600                       # number of ReadReq MSHR miss cycles
system.cpu.icache.ReadReq_mshr_miss_latency::total    145203600                       # number of ReadReq MSHR miss cycles
system.cpu.icache.ReadReq_mshr_miss_rate::.cpu.inst     0.010775                       # mshr miss rate for ReadReq accesses
system.cpu.icache.ReadReq_mshr_miss_rate::total     0.010775                       # mshr miss rate for ReadReq accesses
system.cpu.icache.ReadReq_avg_mshr_miss_latency::.cpu.inst 50035.699518                       # average ReadReq mshr miss latency
system.cpu.icache.ReadReq_avg_mshr_miss_latency::total 50035.699518                       # average ReadReq mshr miss latency
system.cpu.icache.prefetcher.pwrStateResidencyTicks::UNDEFINED   1161407200                       # Cumulative time (in ticks) in various power states
system.cpu.icache.tags.pwrStateResidencyTicks::UNDEFINED   1161407200                       # Cumulative time (in ticks) in various power states
system.cpu.icache.tags.tagsinuse           253.633516                       # Cycle average of tags in use
system.cpu.icache.tags.total_refs              249564                       # Total number of references to valid blocks.
system.cpu.icache.tags.sampled_refs              2646                       # Sample count of references to valid blocks.
system.cpu.icache.tags.avg_refs             94.317460                       # Average number of references to valid blocks.
system.cpu.icache.tags.warmup_cycle             66400                       # Cycle when the warmup percentage was hit.
system.cpu.icache.tags.occ_blocks::.cpu.inst   253.633516                       # Average occupied blocks per requestor
system.cpu.icache.tags.occ_percent::.cpu.inst     0.990756                       # Average percentage of cache occupancy
system.cpu.icache.tags.occ_percent::total     0.990756                       # Average percentage of cache occupancy
system.cpu.icache.tags.occ_task_id_blocks::1024          256                       # Occupied blocks per task id
system.cpu.icache.tags.age_task_id_blocks_1024::0          110                       # Occupied blocks per task id
system.cpu.icache.tags.age_task_id_blocks_1024::1          100                       # Occupied blocks per task id
system.cpu.icache.tags.age_task_id_blocks_1024::2           45                       # Occupied blocks per task id
system.cpu.icache.tags.age_task_id_blocks_1024::3            1                       # Occupied blocks per task id
system.cpu.icache.tags.occ_task_id_percent::1024            1                       # Percentage of cache occupancy per task id
system.cpu.icache.tags.tag_accesses            541560                       # Number of tag accesses
system.cpu.icache.tags.data_accesses           541560                       # Number of data accesses
system.cpu.dtb.walker.pwrStateResidencyTicks::UNDEFINED   1161407200                       # Cumulative time (in ticks) in various power states
system.cpu.interrupts.clk_domain.clock           6400                       # Clock period in ticks
system.cpu.itb.walker.pwrStateResidencyTicks::UNDEFINED   1161407200                       # Cumulative time (in ticks) in various power states
system.cpu.dcache.pwrStateResidencyTicks::UNDEFINED   1161407200                       # Cumulative time (in ticks) in various power states
system.cpu.dcache.demand_hits::.cpu.data       761893                       # number of demand (read+write) hits
system.cpu.dcache.demand_hits::total           761893                       # number of demand (read+write) hits
system.cpu.dcache.overall_hits::.cpu.data       761893                       # number of overall hits
system.cpu.dcache.overall_hits::total          761893                       # number of overall hits
system.cpu.dcache.demand_misses::.cpu.data        35531                       # number of demand (read+write) misses
system.cpu.dcache.demand_misses::total          35531                       # number of demand (read+write) misses
system.cpu.dcache.overall_misses::.cpu.data        35531                       # number of overall misses
system.cpu.dcache.overall_misses::total         35531                       # number of overall misses
system.cpu.dcache.demand_miss_latency::.cpu.data   1727316799                       # number of demand (read+write) miss cycles
system.cpu.dcache.demand_miss_latency::total   1727316799                       # number of demand (read+write) miss cycles
system.cpu.dcache.overall_miss_latency::.cpu.data   1727316799                       # number of overall miss cycles
system.cpu.dcache.overall_miss_latency::total   1727316799                       # number of overall miss cycles
system.cpu.dcache.demand_accesses::.cpu.data       797424                       # number of demand (read+write) accesses
system.cpu.dcache.demand_accesses::total       797424                       # number of demand (read+write) accesses
system.cpu.dcache.overall_accesses::.cpu.data       797424                       # number of overall (read+write) accesses
system.cpu.dcache.overall_accesses::total       797424                       # number of overall (read+write) accesses
system.cpu.dcache.demand_miss_rate::.cpu.data     0.044557                       # miss rate for demand accesses
system.cpu.dcache.demand_miss_rate::total     0.044557                       # miss rate for demand accesses
system.cpu.dcache.overall_miss_rate::.cpu.data     0.044557                       # miss rate for overall accesses
system.cpu.dcache.overall_miss_rate::total     0.044557                       # miss rate for overall accesses
system.cpu.dcache.demand_avg_miss_latency::.cpu.data 48614.359264                       # average overall miss latency
system.cpu.dcache.demand_avg_miss_latency::total 48614.359264                       # average overall miss latency
system.cpu.dcache.overall_avg_miss_latency::.cpu.data 48614.359264                       # average overall miss latency
system.cpu.dcache.overall_avg_miss_latency::total 48614.359264                       # average overall miss latency
system.cpu.dcache.blocked_cycles::no_mshrs        28467                       # number of cycles access was blocked
system.cpu.dcache.blocked_cycles::no_targets          534                       # number of cycles access was blocked
system.cpu.dcache.blocked::no_mshrs               759                       # number of cycles access was blocked
system.cpu.dcache.blocked::no_targets               3                       # number of cycles access was blocked
system.cpu.dcache.avg_blocked_cycles::no_mshrs    37.505929                       # average number of cycles each access was blocked
system.cpu.dcache.avg_blocked_cycles::no_targets          178                       # average number of cycles each access was blocked
system.cpu.dcache.unused_prefetches              1760                       # number of HardPF blocks evicted w/o reference
system.cpu.dcache.writebacks::.writebacks         2777                       # number of writebacks
system.cpu.dcache.writebacks::total              2777                       # number of writebacks
system.cpu.dcache.demand_mshr_hits::.cpu.data        22824                       # number of demand (read+write) MSHR hits
system.cpu.dcache.demand_mshr_hits::total        22824                       # number of demand (read+write) MSHR hits
system.cpu.dcache.overall_mshr_hits::.cpu.data        22824                       # number of overall MSHR hits
system.cpu.dcache.overall_mshr_hits::total        22824                       # number of overall MSHR hits
system.cpu.dcache.demand_mshr_misses::.cpu.data        12707                       # number of demand (read+write) MSHR misses
system.cpu.dcache.demand_mshr_misses::total        12707                       # number of demand (read+write) MSHR misses
system.cpu.dcache.overall_mshr_misses::.cpu.data        12707                       # number of overall MSHR misses
system.cpu.dcache.overall_mshr_misses::.cpu.dcache.prefetcher         4238                       # number of overall MSHR misses
system.cpu.dcache.overall_mshr_misses::total        16945                       # number of overall MSHR misses
system.cpu.dcache.demand_mshr_miss_latency::.cpu.data    585931599                       # number of demand (read+write) MSHR miss cycles
system.cpu.dcache.demand_mshr_miss_latency::total    585931599                       # number of demand (read+write) MSHR miss cycles
system.cpu.dcache.overall_mshr_miss_latency::.cpu.data    585931599                       # number of overall MSHR miss cycles
system.cpu.dcache.overall_mshr_miss_latency::.cpu.dcache.prefetcher    240405891                       # number of overall MSHR miss cycles
system.cpu.dcache.overall_mshr_miss_latency::total    826337490                       # number of overall MSHR miss cycles
system.cpu.dcache.demand_mshr_miss_rate::.cpu.data     0.015935                       # mshr miss rate for demand accesses
system.cpu.dcache.demand_mshr_miss_rate::total     0.015935                       # mshr miss rate for demand accesses
system.cpu.dcache.overall_mshr_miss_rate::.cpu.data     0.015935                       # mshr miss rate for overall accesses
system.cpu.dcache.overall_mshr_miss_rate::.cpu.dcache.prefetcher          inf                       # mshr miss rate for overall accesses
system.cpu.dcache.overall_mshr_miss_rate::total     0.021250                       # mshr miss rate for overall accesses
system.cpu.dcache.demand_avg_mshr_miss_latency::.cpu.data 46110.930904                       # average overall mshr miss latency
system.cpu.dcache.demand_avg_mshr_miss_latency::total 46110.930904                       # average overall mshr miss latency
system.cpu.dcache.overall_avg_mshr_miss_latency::.cpu.data 46110.930904                       # average overall mshr miss latency
system.cpu.dcache.overall_avg_mshr_miss_latency::.cpu.dcache.prefetcher 56726.260264                       # average overall mshr miss latency
system.cpu.dcache.overall_avg_mshr_miss_latency::total 48765.859546                       # average overall mshr miss latency
system.cpu.dcache.replacements                  15921                       # number of replacements
system.cpu.dcache.ReadReq_hits::.cpu.data       550279                       # number of ReadReq hits
system.cpu.dcache.ReadReq_hits::total          550279                       # number of ReadReq hits
system.cpu.dcache.ReadReq_misses::.cpu.data        33397                       # number of ReadReq misses
system.cpu.dcache.ReadReq_misses::total         33397                       # number of ReadReq misses
system.cpu.dcache.ReadReq_miss_latency::.cpu.data   1621230800                       # number of ReadReq miss cycles
system.cpu.dcache.ReadReq_miss_latency::total   1621230800                       # number of ReadReq miss cycles
system.cpu.dcache.ReadReq_accesses::.cpu.data       583676                       # number of ReadReq accesses(hits+misses)
system.cpu.dcache.ReadReq_accesses::total       583676                       # number of ReadReq accesses(hits+misses)
system.cpu.dcache.ReadReq_miss_rate::.cpu.data     0.057218                       # miss rate for ReadReq accesses
system.cpu.dcache.ReadReq_miss_rate::total     0.057218                       # miss rate for ReadReq accesses
system.cpu.dcache.ReadReq_avg_miss_latency::.cpu.data 48544.204569                       # average ReadReq miss latency
system.cpu.dcache.ReadReq_avg_miss_latency::total 48544.204569                       # average ReadReq miss latency
system.cpu.dcache.ReadReq_mshr_hits::.cpu.data        22789                       # number of ReadReq MSHR hits
system.cpu.dcache.ReadReq_mshr_hits::total        22789                       # number of ReadReq MSHR hits
system.cpu.dcache.ReadReq_mshr_misses::.cpu.data        10608                       # number of ReadReq MSHR misses
system.cpu.dcache.ReadReq_mshr_misses::total        10608                       # number of ReadReq MSHR misses
system.cpu.dcache.ReadReq_mshr_miss_latency::.cpu.data    482826400                       # number of ReadReq MSHR miss cycles
system.cpu.dcache.ReadReq_mshr_miss_latency::total    482826400                       # number of ReadReq MSHR miss cycles
system.cpu.dcache.ReadReq_mshr_miss_rate::.cpu.data     0.018174                       # mshr miss rate for ReadReq accesses
system.cpu.dcache.ReadReq_mshr_miss_rate::total     0.018174                       # mshr miss rate for ReadReq accesses
system.cpu.dcache.ReadReq_avg_mshr_miss_latency::.cpu.data 45515.309201                       # average ReadReq mshr miss latency
system.cpu.dcache.ReadReq_avg_mshr_miss_latency::total 45515.309201                       # average ReadReq mshr miss latency
system.cpu.dcache.WriteReq_hits::.cpu.data       211614                       # number of WriteReq hits
system.cpu.dcache.WriteReq_hits::total         211614                       # number of WriteReq hits
system.cpu.dcache.WriteReq_misses::.cpu.data         2134                       # number of WriteReq misses
system.cpu.dcache.WriteReq_misses::total         2134                       # number of WriteReq misses
system.cpu.dcache.WriteReq_miss_latency::.cpu.data    106085999                       # number of WriteReq miss cycles
system.cpu.dcache.WriteReq_miss_latency::total    106085999                       # number of WriteReq miss cycles
system.cpu.dcache.WriteReq_accesses::.cpu.data       213748                       # number of WriteReq accesses(hits+misses)
system.cpu.dcache.WriteReq_accesses::total       213748                       # number of WriteReq accesses(hits+misses)
system.cpu.dcache.WriteReq_miss_rate::.cpu.data     0.009984                       # miss rate for WriteReq accesses
system.cpu.dcache.WriteReq_miss_rate::total     0.009984                       # miss rate for WriteReq accesses
system.cpu.dcache.WriteReq_avg_miss_latency::.cpu.data 49712.276945                       # average WriteReq miss latency
system.cpu.dcache.WriteReq_avg_miss_latency::total 49712.276945                       # average WriteReq miss latency
system.cpu.dcache.WriteReq_mshr_hits::.cpu.data           35                       # number of WriteReq MSHR hits
system.cpu.dcache.WriteReq_mshr_hits::total           35                       # number of WriteReq MSHR hits
system.cpu.dcache.WriteReq_mshr_misses::.cpu.data         2099                       # number of WriteReq MSHR misses
system.cpu.dcache.WriteReq_mshr_misses::total         2099                       # number of WriteReq MSHR misses
system.cpu.dcache.WriteReq_mshr_miss_latency::.cpu.data    103105199                       # number of WriteReq MSHR miss cycles
[...]
system.l2cache.demand_mshr_misses::.cpu.data          119                       # number of demand (read+write) MSHR misses
system.l2cache.demand_mshr_misses::.cpu.dcache.prefetcher           47                       # number of demand (read+write) MSHR misses
system.l2cache.demand_mshr_misses::total          398                       # number of demand (read+write) MSHR misses
system.l2cache.overall_mshr_misses::.cpu.inst          232                       # number of overall MSHR misses
system.l2cache.overall_mshr_misses::.cpu.data          119                       # number of overall MSHR misses
system.l2cache.overall_mshr_misses::.cpu.dcache.prefetcher           47                       # number of overall MSHR misses
system.l2cache.overall_mshr_misses::total          398                       # number of overall MSHR misses
system.l2cache.demand_mshr_miss_latency::.cpu.inst     14209200                       # number of demand (read+write) MSHR miss cycles
system.l2cache.demand_mshr_miss_latency::.cpu.data      7053600                       # number of demand (read+write) MSHR miss cycles
system.l2cache.demand_mshr_miss_latency::.cpu.dcache.prefetcher      2772354                       # number of demand (read+write) MSHR miss cycles
system.l2cache.demand_mshr_miss_latency::total     24035154                       # number of demand (read+write) MSHR miss cycles
system.l2cache.overall_mshr_miss_latency::.cpu.inst     14209200                       # number of overall MSHR miss cycles
system.l2cache.overall_mshr_miss_latency::.cpu.data      7053600                       # number of overall MSHR miss cycles
system.l2cache.overall_mshr_miss_latency::.cpu.dcache.prefetcher      2772354                       # number of overall MSHR miss cycles
system.l2cache.overall_mshr_miss_latency::total     24035154                       # number of overall MSHR miss cycles
system.l2cache.demand_mshr_miss_rate::.cpu.inst     0.524887                       # mshr miss rate for demand accesses
system.l2cache.demand_mshr_miss_rate::.cpu.data     0.508547                       # mshr miss rate for demand accesses
system.l2cache.demand_mshr_miss_rate::.cpu.dcache.prefetcher     0.796610                       # mshr miss rate for demand accesses
system.l2cache.demand_mshr_miss_rate::total     0.541497                       # mshr miss rate for demand accesses
system.l2cache.overall_mshr_miss_rate::.cpu.inst     0.524887                       # mshr miss rate for overall accesses
system.l2cache.overall_mshr_miss_rate::.cpu.data     0.508547                       # mshr miss rate for overall accesses
system.l2cache.overall_mshr_miss_rate::.cpu.dcache.prefetcher     0.796610                       # mshr miss rate for overall accesses
system.l2cache.overall_mshr_miss_rate::total     0.541497                       # mshr miss rate for overall accesses
system.l2cache.demand_avg_mshr_miss_latency::.cpu.inst 61246.551724                       # average overall mshr miss latency
system.l2cache.demand_avg_mshr_miss_latency::.cpu.data 59273.949580                       # average overall mshr miss latency
system.l2cache.demand_avg_mshr_miss_latency::.cpu.dcache.prefetcher 58986.255319                       # average overall mshr miss latency
system.l2cache.demand_avg_mshr_miss_latency::total 60389.834171                       # average overall mshr miss latency
system.l2cache.overall_avg_mshr_miss_latency::.cpu.inst 61246.551724                       # average overall mshr miss latency
system.l2cache.overall_avg_mshr_miss_latency::.cpu.data 59273.949580                       # average overall mshr miss latency
system.l2cache.overall_avg_mshr_miss_latency::.cpu.dcache.prefetcher 58986.255319                       # average overall mshr miss latency
system.l2cache.overall_avg_mshr_miss_latency::total 60389.834171                       # average overall mshr miss latency
system.l2cache.replacements                       405                       # number of replacements
system.l2cache.WritebackDirty_hits::.writebacks           88                       # number of WritebackDirty hits
system.l2cache.WritebackDirty_hits::total           88                       # number of WritebackDirty hits
system.l2cache.WritebackDirty_accesses::.writebacks           88                       # number of WritebackDirty accesses(hits+misses)
system.l2cache.WritebackDirty_accesses::total           88                       # number of WritebackDirty accesses(hits+misses)
system.l2cache.CleanEvict_mshr_misses::.writebacks            7                       # number of CleanEvict MSHR misses
system.l2cache.CleanEvict_mshr_misses::total            7                       # number of CleanEvict MSHR misses
system.l2cache.CleanEvict_mshr_miss_rate::.writebacks          inf                       # mshr miss rate for CleanEvict accesses
system.l2cache.CleanEvict_mshr_miss_rate::total          inf                       # mshr miss rate for CleanEvict accesses
system.l2cache.ReadExReq_hits::.cpu.data            4                       # number of ReadExReq hits
system.l2cache.ReadExReq_hits::total                4                       # number of ReadExReq hits
system.l2cache.ReadExReq_misses::.cpu.data            7                       # number of ReadExReq misses
system.l2cache.ReadExReq_misses::total              7                       # number of ReadExReq misses
system.l2cache.ReadExReq_miss_latency::.cpu.data       566000                       # number of ReadExReq miss cycles
system.l2cache.ReadExReq_miss_latency::total       566000                       # number of ReadExReq miss cycles
system.l2cache.ReadExReq_accesses::.cpu.data           11                       # number of ReadExReq accesses(hits+misses)
system.l2cache.ReadExReq_accesses::total           11                       # number of ReadExReq accesses(hits+misses)
system.l2cache.ReadExReq_miss_rate::.cpu.data     0.636364                       # miss rate for ReadExReq accesses
system.l2cache.ReadExReq_miss_rate::total     0.636364                       # miss rate for ReadExReq accesses
system.l2cache.ReadExReq_avg_miss_latency::.cpu.data 80857.142857                       # average ReadExReq miss latency
system.l2cache.ReadExReq_avg_miss_latency::total 80857.142857                       # average ReadExReq miss latency
system.l2cache.ReadExReq_mshr_misses::.cpu.data            7                       # number of ReadExReq MSHR misses
system.l2cache.ReadExReq_mshr_misses::total            7                       # number of ReadExReq MSHR misses
system.l2cache.ReadExReq_mshr_miss_latency::.cpu.data       510000                       # number of ReadExReq MSHR miss cycles
system.l2cache.ReadExReq_mshr_miss_latency::total       510000                       # number of ReadExReq MSHR miss cycles
system.l2cache.ReadExReq_mshr_miss_rate::.cpu.data     0.636364                       # mshr miss rate for ReadExReq accesses
system.l2cache.ReadExReq_mshr_miss_rate::total     0.636364                       # mshr miss rate for ReadExReq accesses
system.l2cache.ReadExReq_avg_mshr_miss_latency::.cpu.data 72857.142857                       # average ReadExReq mshr miss latency
system.l2cache.ReadExReq_avg_mshr_miss_latency::total 72857.142857                       # average ReadExReq mshr miss latency
system.l2cache.ReadSharedReq_hits::.cpu.inst          210                       # number of ReadSharedReq hits
system.l2cache.ReadSharedReq_hits::.cpu.data          111                       # number of ReadSharedReq hits
system.l2cache.ReadSharedReq_hits::.cpu.dcache.prefetcher           12                       # number of ReadSharedReq hits
system.l2cache.ReadSharedReq_hits::total          333                       # number of ReadSharedReq hits
system.l2cache.ReadSharedReq_misses::.cpu.inst          232                       # number of ReadSharedReq misses
system.l2cache.ReadSharedReq_misses::.cpu.data          112                       # number of ReadSharedReq misses
system.l2cache.ReadSharedReq_misses::.cpu.dcache.prefetcher           47                       # number of ReadSharedReq misses
system.l2cache.ReadSharedReq_misses::total          391                       # number of ReadSharedReq misses
system.l2cache.ReadSharedReq_miss_latency::.cpu.inst     16073200                       # number of ReadSharedReq miss cycles
system.l2cache.ReadSharedReq_miss_latency::.cpu.data      7439600                       # number of ReadSharedReq miss cycles
system.l2cache.ReadSharedReq_miss_latency::.cpu.dcache.prefetcher      3148354                       # number of ReadSharedReq miss cycles
system.l2cache.ReadSharedReq_miss_latency::total     26661154                       # number of ReadSharedReq miss cycles
system.l2cache.ReadSharedReq_accesses::.cpu.inst          442                       # number of ReadSharedReq accesses(hits+misses)
system.l2cache.ReadSharedReq_accesses::.cpu.data          223                       # number of ReadSharedReq accesses(hits+misses)
system.l2cache.ReadSharedReq_accesses::.cpu.dcache.prefetcher           59                       # number of ReadSharedReq accesses(hits+misses)
system.l2cache.ReadSharedReq_accesses::total          724                       # number of ReadSharedReq accesses(hits+misses)
system.l2cache.ReadSharedReq_miss_rate::.cpu.inst     0.524887                       # miss rate for ReadSharedReq accesses
system.l2cache.ReadSharedReq_miss_rate::.cpu.data     0.502242                       # miss rate for ReadSharedReq accesses
system.l2cache.ReadSharedReq_miss_rate::.cpu.dcache.prefetcher     0.796610                       # miss rate for ReadSharedReq accesses
system.l2cache.ReadSharedReq_miss_rate::total     0.540055                       # miss rate for ReadSharedReq accesses
system.l2cache.ReadSharedReq_avg_miss_latency::.cpu.inst 69281.034483                       # average ReadSharedReq miss latency
system.l2cache.ReadSharedReq_avg_miss_latency::.cpu.data        66425                       # average ReadSharedReq miss latency
system.l2cache.ReadSharedReq_avg_miss_latency::.cpu.dcache.prefetcher 66986.255319                       # average ReadSharedReq miss latency
system.l2cache.ReadSharedReq_avg_miss_latency::total 68187.094629                       # average ReadSharedReq miss latency
system.l2cache.ReadSharedReq_mshr_misses::.cpu.inst          232                       # number of ReadSharedReq MSHR misses
system.l2cache.ReadSharedReq_mshr_misses::.cpu.data          112                       # number of ReadSharedReq MSHR misses
system.l2cache.ReadSharedReq_mshr_misses::.cpu.dcache.prefetcher           47                       # number of ReadSharedReq MSHR misses
system.l2cache.ReadSharedReq_mshr_misses::total          391                       # number of ReadSharedReq MSHR misses
system.l2cache.ReadSharedReq_mshr_miss_latency::.cpu.inst     14209200                       # number of ReadSharedReq MSHR miss cycles
system.l2cache.ReadSharedReq_mshr_miss_latency::.cpu.data      6543600                       # number of ReadSharedReq MSHR miss cycles
system.l2cache.ReadSharedReq_mshr_miss_latency::.cpu.dcache.prefetcher      2772354                       # number of ReadSharedReq MSHR miss cycles
system.l2cache.ReadSharedReq_mshr_miss_latency::total     23525154                       # number of ReadSharedReq MSHR miss cycles
system.l2cache.ReadSharedReq_mshr_miss_rate::.cpu.inst     0.524887                       # mshr miss rate for ReadSharedReq accesses
system.l2cache.ReadSharedReq_mshr_miss_rate::.cpu.data     0.502242                       # mshr miss rate for ReadSharedReq accesses
system.l2cache.ReadSharedReq_mshr_miss_rate::.cpu.dcache.prefetcher     0.796610                       # mshr miss rate for ReadSharedReq accesses
system.l2cache.ReadSharedReq_mshr_miss_rate::total     0.540055                       # mshr miss rate for ReadSharedReq accesses
system.l2cache.ReadSharedReq_avg_mshr_miss_latency::.cpu.inst 61246.551724                       # average ReadSharedReq mshr miss latency
system.l2cache.ReadSharedReq_avg_mshr_miss_latency::.cpu.data        58425                       # average ReadSharedReq mshr miss latency
system.l2cache.ReadSharedReq_avg_mshr_miss_latency::.cpu.dcache.prefetcher 58986.255319                       # average ReadSharedReq mshr miss latency
system.l2cache.ReadSharedReq_avg_mshr_miss_latency::total 60166.634271                       # average ReadSharedReq mshr miss latency
system.l2cache.prefetcher.pwrStateResidencyTicks::UNDEFINED     28359600                       # Cumulative time (in ticks) in various power states
system.l2cache.tags.pwrStateResidencyTicks::UNDEFINED     28359600                       # Cumulative time (in ticks) in various power states
system.l2cache.tags.tagsinuse                    4096                       # Cycle average of tags in use
system.l2cache.tags.total_refs                  14032                       # Total number of references to valid blocks.
system.l2cache.tags.sampled_refs                 4501                       # Sample count of references to valid blocks.
system.l2cache.tags.avg_refs                 3.117529                       # Average number of references to valid blocks.
system.l2cache.tags.warmup_cycle                    0                       # Cycle when the warmup percentage was hit.
system.l2cache.tags.occ_blocks::.writebacks    44.425140                       # Average occupied blocks per requestor
system.l2cache.tags.occ_blocks::.cpu.inst  1132.297526                       # Average occupied blocks per requestor
system.l2cache.tags.occ_blocks::.cpu.data  1890.779361                       # Average occupied blocks per requestor
system.l2cache.tags.occ_blocks::.cpu.dcache.prefetcher   888.505520                       # Average occupied blocks per requestor
system.l2cache.tags.occ_blocks::.l2cache.prefetcher   139.992454                       # Average occupied blocks per requestor
system.l2cache.tags.occ_percent::.writebacks     0.010846                       # Average percentage of cache occupancy
system.l2cache.tags.occ_percent::.cpu.inst     0.276440                       # Average percentage of cache occupancy
system.l2cache.tags.occ_percent::.cpu.data     0.461616                       # Average percentage of cache occupancy
system.l2cache.tags.occ_percent::.cpu.dcache.prefetcher     0.216920                       # Average percentage of cache occupancy
system.l2cache.tags.occ_percent::.l2cache.prefetcher     0.034178                       # Average percentage of cache occupancy
system.l2cache.tags.occ_percent::total              1                       # Average percentage of cache occupancy
system.l2cache.tags.occ_task_id_blocks::1022          973                       # Occupied blocks per task id
system.l2cache.tags.occ_task_id_blocks::1024         3123                       # Occupied blocks per task id
system.l2cache.tags.age_task_id_blocks_1022::0            7                       # Occupied blocks per task id
system.l2cache.tags.age_task_id_blocks_1022::1           56                       # Occupied blocks per task id
system.l2cache.tags.age_task_id_blocks_1022::2          903                       # Occupied blocks per task id
system.l2cache.tags.age_task_id_blocks_1022::3            7                       # Occupied blocks per task id
system.l2cache.tags.age_task_id_blocks_1024::0          176                       # Occupied blocks per task id
system.l2cache.tags.age_task_id_blocks_1024::1          340                       # Occupied blocks per task id
system.l2cache.tags.age_task_id_blocks_1024::2         2512                       # Occupied blocks per task id
system.l2cache.tags.age_task_id_blocks_1024::3           95                       # Occupied blocks per task id
system.l2cache.tags.occ_task_id_percent::1022     0.237549                       # Percentage of cache occupancy per task id
system.l2cache.tags.occ_task_id_percent::1024     0.762451                       # Percentage of cache occupancy per task id
system.l2cache.tags.tag_accesses                12165                       # Number of tag accesses
system.l2cache.tags.data_accesses               12165                       # Number of data accesses
system.mem_ctrl.pwrStateResidencyTicks::UNDEFINED     28359600                       # Cumulative time (in ticks) in various power states
system.mem_ctrl.bytes_read::.cpu.inst           14912                       # Number of bytes read from this memory
system.mem_ctrl.bytes_read::.cpu.data            7616                       # Number of bytes read from this memory
system.mem_ctrl.bytes_read::.cpu.dcache.prefetcher         3008                       # Number of bytes read from this memory
system.mem_ctrl.bytes_read::total               25536                       # Number of bytes read from this memory
system.mem_ctrl.bytes_inst_read::.cpu.inst        14912                       # Number of instructions bytes read from this memory
system.mem_ctrl.bytes_inst_read::total          14912                       # Number of instructions bytes read from this memory
system.mem_ctrl.bytes_written::.writebacks         1792                       # Number of bytes written to this memory
system.mem_ctrl.bytes_written::total             1792                       # Number of bytes written to this memory
system.mem_ctrl.num_reads::.cpu.inst              233                       # Number of read requests responded to by this memory
system.mem_ctrl.num_reads::.cpu.data              119                       # Number of read requests responded to by this memory
system.mem_ctrl.num_reads::.cpu.dcache.prefetcher           47                       # Number of read requests responded to by this memory
system.mem_ctrl.num_reads::total                  399                       # Number of read requests responded to by this memory
system.mem_ctrl.num_writes::.writebacks            28                       # Number of write requests responded to by this memory
system.mem_ctrl.num_writes::total                  28                       # Number of write requests responded to by this memory
system.mem_ctrl.bw_read::.cpu.inst          525818418                       # Total read bandwidth from this memory (bytes/s)
system.mem_ctrl.bw_read::.cpu.data          268551037                       # Total read bandwidth from this memory (bytes/s)
system.mem_ctrl.bw_read::.cpu.dcache.prefetcher    106066376                       # Total read bandwidth from this memory (bytes/s)
system.mem_ctrl.bw_read::total              900435831                       # Total read bandwidth from this memory (bytes/s)
system.mem_ctrl.bw_inst_read::.cpu.inst     525818418                       # Instruction read bandwidth from this memory (bytes/s)
system.mem_ctrl.bw_inst_read::total         525818418                       # Instruction read bandwidth from this memory (bytes/s)
system.mem_ctrl.bw_write::.writebacks        63188479                       # Write bandwidth from this memory (bytes/s)
system.mem_ctrl.bw_write::total              63188479                       # Write bandwidth from this memory (bytes/s)
system.mem_ctrl.bw_total::.writebacks        63188479                       # Total bandwidth to/from this memory (bytes/s)
system.mem_ctrl.bw_total::.cpu.inst         525818418                       # Total bandwidth to/from this memory (bytes/s)
system.mem_ctrl.bw_total::.cpu.data         268551037                       # Total bandwidth to/from this memory (bytes/s)
system.mem_ctrl.bw_total::.cpu.dcache.prefetcher    106066376                       # Total bandwidth to/from this memory (bytes/s)
system.mem_ctrl.bw_total::total             963624311                       # Total bandwidth to/from this memory (bytes/s)

---------- End Simulation Statistics   ----------
