
---------- Begin Simulation Statistics ----------
final_tick                                 1200858800                       # Number of ticks from beginning of simulation (restored from checkpoints and never reset)
host_inst_rate                                 170076                       # Simulator instruction rate (inst/s)
host_mem_usage                                4408880                       # Number of bytes of host memory used
host_op_rate                                   301530                       # Simulator op (including micro ops) rate (op/s)
host_seconds                                    13.99                       # Real time elapsed on the host
host_tick_rate                               85837013                       # Simulator tick rate (ticks/s)
sim_freq                                 1000000000000                       # Frequency of simulated ticks
sim_insts                                     2379350                       # Number of instructions simulated
sim_ops                                       4218394                       # Number of ops (including micro ops) simulated
sim_seconds                                  0.001201                       # Number of seconds simulated
sim_ticks                                  1200858800                       # Number of ticks simulated
system.cpu.branchPred.BTBCorrect                    0                       # Number of correct BTB predictions (this stat may not work properly.
system.cpu.branchPred.BTBHitPct              0.000000                       # BTB Hit Percentage
system.cpu.branchPred.BTBHits                       0                       # Number of BTB hits
system.cpu.branchPred.BTBLookups               504000                       # Number of BTB lookups
system.cpu.branchPred.RASInCorrect                 11                       # Number of incorrect RAS predictions.
system.cpu.branchPred.condIncorrect             24879                       # Number of conditional branches incorrect
system.cpu.branchPred.condPredicted            525820                       # Number of conditional branches predicted
system.cpu.branchPred.indirectHits             274580                       # Number of indirect target hits.
system.cpu.branchPred.indirectLookups          504000                       # Number of indirect predictor lookups.
system.cpu.branchPred.indirectMisses           229420                       # Number of indirect misses.
system.cpu.branchPred.lookups                  568957                       # Number of BP lookups
system.cpu.branchPred.usedRAS                   19642                       # Number of times the RAS was used to get a target.
system.cpu.branchPredindirectMispredicted        12809                       # Number of mispredicted indirect branches.
system.cpu.cc_regfile_reads                   2652832                       # number of cc regfile reads
system.cpu.cc_regfile_writes                  2069912                       # number of cc regfile writes
system.cpu.commit.amos                              0                       # Number of atomic instructions committed
system.cpu.commit.branchMispredicts             25009                       # The number of times a branch was mispredicted
system.cpu.commit.branches                     422609                       # Number of branches committed
system.cpu.commit.bw_lim_events                709222                       # number cycles where commit BW limit reached
system.cpu.commit.commitNonSpecStalls             864                       # The number of times commit has been forced to stall to communicate backwards
system.cpu.commit.commitSquashedInsts          899888                       # The number of squashed insts skipped by commit
system.cpu.commit.committedInsts              2379350                       # Number of instructions committed
system.cpu.commit.committedOps                4218394                       # Number of ops (including micro ops) committed
system.cpu.commit.committed_per_cycle::samples      2587552                       # Number of insts commited each cycle
system.cpu.commit.committed_per_cycle::mean     1.630264                       # Number of insts commited each cycle
system.cpu.commit.committed_per_cycle::stdev     1.739014                       # Number of insts commited each cycle
system.cpu.commit.committed_per_cycle::underflows            0      0.00%      0.00% # Number of insts commited each cycle
system.cpu.commit.committed_per_cycle::0      1216988     47.03%     47.03% # Number of insts commited each cycle
system.cpu.commit.committed_per_cycle::1       207630      8.02%     55.06% # Number of insts commited each cycle
system.cpu.commit.committed_per_cycle::2       187260      7.24%     62.29% # Number of insts commited each cycle
system.cpu.commit.committed_per_cycle::3       266452     10.30%     72.59% # Number of insts commited each cycle
system.cpu.commit.committed_per_cycle::4       709222     27.41%    100.00% # Number of insts commited each cycle
system.cpu.commit.committed_per_cycle::overflows            0      0.00%    100.00% # Number of insts commited each cycle
system.cpu.commit.committed_per_cycle::min_value            0                       # Number of insts commited each cycle
system.cpu.commit.committed_per_cycle::max_value            4                       # Number of insts commited each cycle
system.cpu.commit.committed_per_cycle::total      2587552                       # Number of insts commited each cycle
system.cpu.commit.fp_insts                      75825                       # Number of committed floating point instructions.
system.cpu.commit.function_calls                17723                       # Number of function calls committed.
system.cpu.commit.int_insts                   4162235                       # Number of committed integer instructions.
system.cpu.commit.loads                        601832                       # Number of loads committed
system.cpu.commit.membars                           1                       # Number of memory barriers committed
system.cpu.commit.op_class_0::No_OpClass        20843      0.49%      0.49% # Class of committed instruction
system.cpu.commit.op_class_0::IntAlu          3291351     78.02%     78.52% # Class of committed instruction
system.cpu.commit.op_class_0::IntMult            1053      0.02%     78.54% # Class of committed instruction
system.cpu.commit.op_class_0::IntDiv            38199      0.91%     79.45% # Class of committed instruction
system.cpu.commit.op_class_0::FloatAdd           2996      0.07%     79.52% # Class of committed instruction
system.cpu.commit.op_class_0::FloatCmp              0      0.00%     79.52% # Class of committed instruction
system.cpu.commit.op_class_0::FloatCvt           1376      0.03%     79.55% # Class of committed instruction
system.cpu.commit.op_class_0::FloatMult             0      0.00%     79.55% # Class of committed instruction
system.cpu.commit.op_class_0::FloatMultAcc            0      0.00%     79.55% # Class of committed instruction
system.cpu.commit.op_class_0::FloatDiv              0      0.00%     79.55% # Class of committed instruction
system.cpu.commit.op_class_0::FloatMisc             0      0.00%     79.55% # Class of committed instruction
system.cpu.commit.op_class_0::FloatSqrt             0      0.00%     79.55% # Class of committed instruction
system.cpu.commit.op_class_0::SimdAdd            6346      0.15%     79.70% # Class of committed instruction
system.cpu.commit.op_class_0::SimdAddAcc            0      0.00%     79.70% # Class of committed instruction
system.cpu.commit.op_class_0::SimdAlu           11415      0.27%     79.97% # Class of committed instruction
system.cpu.commit.op_class_0::SimdCmp               0      0.00%     79.97% # Class of committed instruction
system.cpu.commit.op_class_0::SimdCvt           12434      0.29%     80.27% # Class of committed instruction
system.cpu.commit.op_class_0::SimdMisc           6715      0.16%     80.43% # Class of committed instruction
system.cpu.commit.op_class_0::SimdMult              0      0.00%     80.43% # Class of committed instruction
system.cpu.commit.op_class_0::SimdMultAcc            0      0.00%     80.43% # Class of committed instruction
system.cpu.commit.op_class_0::SimdShift          1273      0.03%     80.46% # Class of committed instruction
system.cpu.commit.op_class_0::SimdShiftAcc            0      0.00%     80.46% # Class of committed instruction
system.cpu.commit.op_class_0::SimdDiv               0      0.00%     80.46% # Class of committed instruction
system.cpu.commit.op_class_0::SimdSqrt              0      0.00%     80.46% # Class of committed instruction
system.cpu.commit.op_class_0::SimdFloatAdd            0      0.00%     80.46% # Class of committed instruction
system.cpu.commit.op_class_0::SimdFloatAlu            0      0.00%     80.46% # Class of committed instruction
system.cpu.commit.op_class_0::SimdFloatCmp            0      0.00%     80.46% # Class of committed instruction
system.cpu.commit.op_class_0::SimdFloatCvt            0      0.00%     80.46% # Class of committed instruction
system.cpu.commit.op_class_0::SimdFloatDiv            0      0.00%     80.46% # Class of committed instruction
system.cpu.commit.op_class_0::SimdFloatMisc            0      0.00%     80.46% # Class of committed instruction
system.cpu.commit.op_class_0::SimdFloatMult            0      0.00%     80.46% # Class of committed instruction
system.cpu.commit.op_class_0::SimdFloatMultAcc            0      0.00%     80.46% # Class of committed instruction
system.cpu.commit.op_class_0::SimdFloatSqrt            0      0.00%     80.46% # Class of committed instruction
system.cpu.commit.op_class_0::SimdReduceAdd            0      0.00%     80.46% # Class of committed instruction
system.cpu.commit.op_class_0::SimdReduceAlu            0      0.00%     80.46% # Class of committed instruction
system.cpu.commit.op_class_0::SimdReduceCmp            0      0.00%     80.46% # Class of committed instruction
system.cpu.commit.op_class_0::SimdFloatReduceAdd            0      0.00%     80.46% # Class of committed instruction
system.cpu.commit.op_class_0::SimdFloatReduceCmp            0      0.00%     80.46% # Class of committed instruction
system.cpu.commit.op_class_0::SimdAes               0      0.00%     80.46% # Class of committed instruction
system.cpu.commit.op_class_0::SimdAesMix            0      0.00%     80.46% # Class of committed instruction
system.cpu.commit.op_class_0::SimdSha1Hash            0      0.00%     80.46% # Class of committed instruction
system.cpu.commit.op_class_0::SimdSha1Hash2            0      0.00%     80.46% # Class of committed instruction
system.cpu.commit.op_class_0::SimdSha256Hash            0      0.00%     80.46% # Class of committed instruction
system.cpu.commit.op_class_0::SimdSha256Hash2            0      0.00%     80.46% # Class of committed instruction
system.cpu.commit.op_class_0::SimdShaSigma2            0      0.00%     80.46% # Class of committed instruction
system.cpu.commit.op_class_0::SimdShaSigma3            0      0.00%     80.46% # Class of committed instruction
system.cpu.commit.op_class_0::SimdPredAlu            0      0.00%     80.46% # Class of committed instruction
system.cpu.commit.op_class_0::MemRead          581944     13.80%     94.25% # Class of committed instruction
system.cpu.commit.op_class_0::MemWrite         210062      4.98%     99.23% # Class of committed instruction
system.cpu.commit.op_class_0::FloatMemRead        19888      0.47%     99.70% # Class of committed instruction
system.cpu.commit.op_class_0::FloatMemWrite        12499      0.30%    100.00% # Class of committed instruction
system.cpu.commit.op_class_0::IprAccess             0      0.00%    100.00% # Class of committed instruction
system.cpu.commit.op_class_0::InstPrefetch            0      0.00%    100.00% # Class of committed instruction
system.cpu.commit.op_class_0::total           4218394                       # Class of committed instruction
system.cpu.commit.refs                         824393                       # Number of memory references committed
system.cpu.commit.swp_count                         0                       # Number of s/w prefetches committed
system.cpu.commit.vec_insts                         0                       # Number of committed Vector instructions.
system.cpu.committedInsts                     2379350                       # Number of Instructions Simulated
system.cpu.committedOps                       4218394                       # Number of Ops (including micro ops) Simulated
system.cpu.cpi                               1.261751                       # CPI: Cycles Per Instruction
system.cpu.cpi_total                         1.261751                       # CPI: Total CPI of All Threads
system.cpu.dcache.prefetcher.num_hwpf_issued         7912                       # number of hwpf issued
system.cpu.dcache.prefetcher.pfBufferHit        33338                       # number of redundant prefetches already in prefetch queue
system.cpu.dcache.prefetcher.pfIdentified        48707                       # number of prefetch candidates identified
system.cpu.dcache.prefetcher.pfInCache              0                       # number of redundant prefetches already in cache/mshr dropped
system.cpu.dcache.prefetcher.pfRemovedFull            0                       # number of prefetches dropped due to prefetch queue size
system.cpu.dcache.prefetcher.pfSpanPage          4257                       # number of prefetches that crossed the page
system.cpu.decode.BlockedCycles               1040775                       # Number of cycles decode is blocked
system.cpu.decode.DecodedInsts                5339792                       # Number of instructions handled by decode
system.cpu.decode.IdleCycles                   355553                       # Number of cycles decode is idle
system.cpu.decode.RunCycles                   1325164                       # Number of cycles decode is running
system.cpu.decode.SquashCycles                  25081                       # Number of cycles decode is squashing
system.cpu.decode.UnblockCycles                 87214                       # Number of cycles decode is unblocking
system.cpu.dtb.rdAccesses                      686743                       # TLB accesses on read requests
system.cpu.dtb.rdMisses                          2165                       # TLB misses on read requests
system.cpu.dtb.wrAccesses                      242770                       # TLB accesses on write requests
system.cpu.dtb.wrMisses                           161                       # TLB misses on write requests
system.cpu.fetch.Branches                      568957                       # Number of branches that fetch encountered
system.cpu.fetch.CacheLines                    294645                       # Number of cache lines fetched
system.cpu.fetch.Cycles                       2418036                       # Number of cycles fetch has run and was not squashing or blocked
system.cpu.fetch.IcacheSquashes                  4829                       # Number of outstanding Icache misses that were squashed
system.cpu.fetch.IcacheWaitRetryStallCycles           16                       # Number of stall cycles due to full MSHR
system.cpu.fetch.Insts                        3161840                       # Number of instructions fetch has processed
system.cpu.fetch.MiscStallCycles                  149                       # Number of cycles fetch has spent waiting on interrupts, or bad addresses, or out of MSHRs
system.cpu.fetch.PendingQuiesceStallCycles            8                       # Number of stall cycles due to pending quiesce instructions
system.cpu.fetch.PendingTrapStallCycles           883                       # Number of stall cycles due to pending traps
system.cpu.fetch.SquashCycles                   50162                       # Number of cycles fetch has spent squashing
system.cpu.fetch.branchRate                  0.189517                       # Number of branch fetches per cycle
system.cpu.fetch.icacheStallCycles             389614                       # Number of cycles fetch is stalled on an Icache miss
system.cpu.fetch.predictedBranches             294222                       # Number of branches that fetch has predicted taken
system.cpu.fetch.rate                        1.053193                       # Number of inst fetches per cycle
system.cpu.fetch.rateDist::samples            2833787                       # Number of instructions fetched each cycle (Total)
system.cpu.fetch.rateDist::mean              1.983811                       # Number of instructions fetched each cycle (Total)
system.cpu.fetch.rateDist::stdev             1.923550                       # Number of instructions fetched each cycle (Total)
system.cpu.fetch.rateDist::underflows               0      0.00%      0.00% # Number of instructions fetched each cycle (Total)
system.cpu.fetch.rateDist::0                  1302591     45.97%     45.97% # Number of instructions fetched each cycle (Total)
system.cpu.fetch.rateDist::1                    86162      3.04%     49.01% # Number of instructions fetched each cycle (Total)
system.cpu.fetch.rateDist::2                    71509      2.52%     51.53% # Number of instructions fetched each cycle (Total)
system.cpu.fetch.rateDist::3                   101582      3.58%     55.12% # Number of instructions fetched each cycle (Total)
system.cpu.fetch.rateDist::4                  1271943     44.88%    100.00% # Number of instructions fetched each cycle (Total)
system.cpu.fetch.rateDist::overflows                0      0.00%    100.00% # Number of instructions fetched each cycle (Total)
system.cpu.fetch.rateDist::min_value                0                       # Number of instructions fetched each cycle (Total)
system.cpu.fetch.rateDist::max_value                4                       # Number of instructions fetched each cycle (Total)
system.cpu.fetch.rateDist::total              2833787                       # Number of instructions fetched each cycle (Total)
system.cpu.fp_regfile_reads                    124085                       # number of floating regfile reads
system.cpu.fp_regfile_writes                    68545                       # number of floating regfile writes
system.cpu.fuPool.fu_ticks_busy::IntALU(0)    248554400                       # Total ticks fu was busy
system.cpu.fuPool.fu_ticks_busy::IntALU(1)    248554400                       # Total ticks fu was busy
system.cpu.fuPool.fu_ticks_busy::IntALU(2)    248554400                       # Total ticks fu was busy
system.cpu.fuPool.fu_ticks_busy::IntALU(3)    248554400                       # Total ticks fu was busy
system.cpu.fuPool.fu_ticks_busy::IntALU(4)    248554400                       # Total ticks fu was busy
system.cpu.fuPool.fu_ticks_busy::IntALU(5)    248554400                       # Total ticks fu was busy
system.cpu.fuPool.fu_ticks_busy::IntMultDiv(0)      8629600                       # Total ticks fu was busy
system.cpu.fuPool.fu_ticks_busy::IntMultDiv(1)      8628800                       # Total ticks fu was busy
system.cpu.fuPool.fu_ticks_busy::FP_ALU(0)       604400                       # Total ticks fu was busy
system.cpu.fuPool.fu_ticks_busy::FP_ALU(1)       604400                       # Total ticks fu was busy
system.cpu.fuPool.fu_ticks_busy::FP_ALU(2)       604400                       # Total ticks fu was busy
system.cpu.fuPool.fu_ticks_busy::FP_ALU(3)       604400                       # Total ticks fu was busy
system.cpu.fuPool.fu_ticks_busy::FP_MultDiv(0)            0                       # Total ticks fu was busy
system.cpu.fuPool.fu_ticks_busy::FP_MultDiv(1)            0                       # Total ticks fu was busy
system.cpu.fuPool.fu_ticks_busy::SIMD_Unit(0)      4711600                       # Total ticks fu was busy
system.cpu.fuPool.fu_ticks_busy::SIMD_Unit(1)      4596800                       # Total ticks fu was busy
system.cpu.fuPool.fu_ticks_busy::SIMD_Unit(2)      4582400                       # Total ticks fu was busy
system.cpu.fuPool.fu_ticks_busy::SIMD_Unit(3)      4707200                       # Total ticks fu was busy
system.cpu.fuPool.fu_ticks_busy::PredALU(0)            0                       # Total ticks fu was busy
system.cpu.fuPool.fu_ticks_busy::RdWrPort(0)     94461200                       # Total ticks fu was busy
system.cpu.fuPool.fu_ticks_busy::RdWrPort(1)     94459600                       # Total ticks fu was busy
system.cpu.fuPool.fu_ticks_busy::RdWrPort(2)     94462800                       # Total ticks fu was busy
system.cpu.fuPool.fu_ticks_busy::RdWrPort(3)     94512000                       # Total ticks fu was busy
system.cpu.fuPool.fu_ticks_busy::IprPort(0)            0                       # Total ticks fu was busy
system.cpu.fuPool.fu_ticks_busy::total     1907496000                       # Total ticks fu was busy
system.cpu.icache.prefetcher.num_hwpf_issued            0                       # number of hwpf issued
system.cpu.icache.prefetcher.pfBufferHit            0                       # number of redundant prefetches already in prefetch queue
system.cpu.icache.prefetcher.pfIdentified            0                       # number of prefetch candidates identified
system.cpu.icache.prefetcher.pfInCache              0                       # number of redundant prefetches already in cache/mshr dropped
system.cpu.icache.prefetcher.pfRemovedFull            0                       # number of prefetches dropped due to prefetch queue size
system.cpu.icache.prefetcher.pfSpanPage             0                       # number of prefetches that crossed the page
system.cpu.idleCycles                          168361                       # Total number of cycles that the CPU has spent unscheduled due to idling
system.cpu.iew.branchMispredicts                29605                       # Number of branch mispredicts detected at execute
system.cpu.iew.exec_branches                   453449                       # Number of branches executed
system.cpu.iew.exec_nop                             0                       # number of nop insts executed
system.cpu.iew.exec_rate                     1.585727                       # Inst execution rate
system.cpu.iew.exec_refs                       931222                       # number of memory reference insts executed
system.cpu.iew.exec_stores                     242756                       # Number of stores executed
system.cpu.iew.exec_swp                             0                       # number of swp insts executed
system.cpu.iew.iewBlockCycles                  706196                       # Number of cycles IEW is blocking
system.cpu.iew.iewDispLoadInsts                719845                       # Number of dispatched load instructions
system.cpu.iew.iewDispNonSpecInsts               1081                       # Number of dispatched non-speculative instructions
system.cpu.iew.iewDispSquashedInsts               645                       # Number of squashed instructions skipped by dispatch
system.cpu.iew.iewDispStoreInsts               253351                       # Number of dispatched store instructions
system.cpu.iew.iewDispatchedInsts             5118224                       # Number of instructions dispatched to IQ
system.cpu.iew.iewExecLoadInsts                688466                       # Number of load instructions executed
system.cpu.iew.iewExecSquashedInsts             35485                       # Number of squashed instructions skipped in execute
system.cpu.iew.iewExecutedInsts               4760588                       # Number of executed instructions
system.cpu.iew.iewIQFullEvents                   3305                       # Number of times the IQ has become full, causing a stall
system.cpu.iew.iewIdleCycles                        0                       # Number of cycles IEW is idle
system.cpu.iew.iewLSQFullEvents                  7737                       # Number of times the LSQ has become full, causing a stall
system.cpu.iew.iewSquashCycles                  25081                       # Number of cycles IEW is squashing
system.cpu.iew.iewUnblockCycles                 13978                       # Number of cycles IEW is unblocking
system.cpu.iew.lsq.thread0.blockedLoads             0                       # Number of blocked loads due to partial load-store forwarding
system.cpu.iew.lsq.thread0.cacheBlocked           587                       # Number of times an access to memory failed due to the cache being blocked
system.cpu.iew.lsq.thread0.forwLoads            44764                       # Number of loads that had data forwarded from stores
system.cpu.iew.lsq.thread0.ignoredResponses          243                       # Number of memory responses ignored because the instruction is squashed
system.cpu.iew.lsq.thread0.invAddrLoads             0                       # Number of loads ignored due to an invalid address
system.cpu.iew.lsq.thread0.invAddrSwpfs             0                       # Number of software prefetches ignored due to an invalid address
system.cpu.iew.lsq.thread0.memOrderViolation           86                       # Number of memory ordering violations
system.cpu.iew.lsq.thread0.rescheduledLoads            0                       # Number of loads that were rescheduled
system.cpu.iew.lsq.thread0.squashedLoads       118011                       # Number of loads squashed
system.cpu.iew.lsq.thread0.squashedStores        30789                       # Number of stores squashed
system.cpu.iew.memOrderViolationEvents             86                       # Number of memory order violations
system.cpu.iew.predictedNotTakenIncorrect        21350                       # Number of branches that were predicted not taken incorrectly
system.cpu.iew.predictedTakenIncorrect           8255                       # Number of branches that were predicted taken incorrectly
system.cpu.iew.wb_consumers                   6397977                       # num instructions consuming a value
system.cpu.iew.wb_count                       4738152                       # cumulative count of insts written-back
system.cpu.iew.wb_fanout                     0.577247                       # average fanout of values written-back
system.cpu.iew.wb_producers                   3693210                       # num instructions producing a value
system.cpu.iew.wb_rate                       1.578254                       # insts written-back per cycle
system.cpu.iew.wb_sent                        4745452                       # cumulative count of insts sent to commit
system.cpu.int_regfile_reads                  7378294                       # number of integer regfile reads
system.cpu.int_regfile_writes                 4049927                       # number of integer regfile writes
system.cpu.ipc                               0.792549                       # IPC: Instructions Per Cycle
system.cpu.ipc_total                         0.792549                       # IPC: Total IPC of All Threads
system.cpu.iq.FU_type_0::No_OpClass             27333      0.57%      0.57% # Type of FU issued
system.cpu.iq.FU_type_0::IntAlu               3728317     77.74%     78.31% # Type of FU issued
system.cpu.iq.FU_type_0::IntMult                 1089      0.02%     78.33% # Type of FU issued
system.cpu.iq.FU_type_0::IntDiv                 42057      0.88%     79.21% # Type of FU issued
system.cpu.iq.FU_type_0::FloatAdd                4628      0.10%     79.30% # Type of FU issued
system.cpu.iq.FU_type_0::FloatCmp                   0      0.00%     79.30% # Type of FU issued
system.cpu.iq.FU_type_0::FloatCvt                1416      0.03%     79.33% # Type of FU issued
system.cpu.iq.FU_type_0::FloatMult                  0      0.00%     79.33% # Type of FU issued
system.cpu.iq.FU_type_0::FloatMultAcc               0      0.00%     79.33% # Type of FU issued
system.cpu.iq.FU_type_0::FloatDiv                   0      0.00%     79.33% # Type of FU issued
system.cpu.iq.FU_type_0::FloatMisc                  0      0.00%     79.33% # Type of FU issued
system.cpu.iq.FU_type_0::FloatSqrt                  0      0.00%     79.33% # Type of FU issued
system.cpu.iq.FU_type_0::SimdAdd                 7031      0.15%     79.48% # Type of FU issued
system.cpu.iq.FU_type_0::SimdAddAcc                 0      0.00%     79.48% # Type of FU issued
system.cpu.iq.FU_type_0::SimdAlu                15420      0.32%     79.80% # Type of FU issued
system.cpu.iq.FU_type_0::SimdCmp                    0      0.00%     79.80% # Type of FU issued
system.cpu.iq.FU_type_0::SimdCvt                14289      0.30%     80.10% # Type of FU issued
system.cpu.iq.FU_type_0::SimdMisc                7344      0.15%     80.25% # Type of FU issued
system.cpu.iq.FU_type_0::SimdMult                   0      0.00%     80.25% # Type of FU issued
system.cpu.iq.FU_type_0::SimdMultAcc                0      0.00%     80.25% # Type of FU issued
system.cpu.iq.FU_type_0::SimdShift               2411      0.05%     80.30% # Type of FU issued
system.cpu.iq.FU_type_0::SimdShiftAcc               0      0.00%     80.30% # Type of FU issued
system.cpu.iq.FU_type_0::SimdDiv                    0      0.00%     80.30% # Type of FU issued
system.cpu.iq.FU_type_0::SimdSqrt                   0      0.00%     80.30% # Type of FU issued
system.cpu.iq.FU_type_0::SimdFloatAdd               0      0.00%     80.30% # Type of FU issued
system.cpu.iq.FU_type_0::SimdFloatAlu               0      0.00%     80.30% # Type of FU issued
system.cpu.iq.FU_type_0::SimdFloatCmp               0      0.00%     80.30% # Type of FU issued
system.cpu.iq.FU_type_0::SimdFloatCvt               0      0.00%     80.30% # Type of FU issued
system.cpu.iq.FU_type_0::SimdFloatDiv               0      0.00%     80.30% # Type of FU issued
system.cpu.iq.FU_type_0::SimdFloatMisc              0      0.00%     80.30% # Type of FU issued
system.cpu.iq.FU_type_0::SimdFloatMult              0      0.00%     80.30% # Type of FU issued
system.cpu.iq.FU_type_0::SimdFloatMultAcc            0      0.00%     80.30% # Type of FU issued
system.cpu.iq.FU_type_0::SimdFloatSqrt              0      0.00%     80.30% # Type of FU issued
system.cpu.iq.FU_type_0::SimdReduceAdd              0      0.00%     80.30% # Type of FU issued
system.cpu.iq.FU_type_0::SimdReduceAlu              0      0.00%     80.30% # Type of FU issued
system.cpu.iq.FU_type_0::SimdReduceCmp              0      0.00%     80.30% # Type of FU issued
system.cpu.iq.FU_type_0::SimdFloatReduceAdd            0      0.00%     80.30% # Type of FU issued
system.cpu.iq.FU_type_0::SimdFloatReduceCmp            0      0.00%     80.30% # Type of FU issued
system.cpu.iq.FU_type_0::SimdAes                    0      0.00%     80.30% # Type of FU issued
system.cpu.iq.FU_type_0::SimdAesMix                 0      0.00%     80.30% # Type of FU issued
system.cpu.iq.FU_type_0::SimdSha1Hash               0      0.00%     80.30% # Type of FU issued
system.cpu.iq.FU_type_0::SimdSha1Hash2              0      0.00%     80.30% # Type of FU issued
system.cpu.iq.FU_type_0::SimdSha256Hash             0      0.00%     80.30% # Type of FU issued
system.cpu.iq.FU_type_0::SimdSha256Hash2            0      0.00%     80.30% # Type of FU issued
system.cpu.iq.FU_type_0::SimdShaSigma2              0      0.00%     80.30% # Type of FU issued
system.cpu.iq.FU_type_0::SimdShaSigma3              0      0.00%     80.30% # Type of FU issued
system.cpu.iq.FU_type_0::SimdPredAlu                0      0.00%     80.30% # Type of FU issued
system.cpu.iq.FU_type_0::MemRead               672909     14.03%     94.33% # Type of FU issued
system.cpu.iq.FU_type_0::MemWrite              231629      4.83%     99.16% # Type of FU issued
system.cpu.iq.FU_type_0::FloatMemRead           26295      0.55%     99.71% # Type of FU issued
system.cpu.iq.FU_type_0::FloatMemWrite          13908      0.29%    100.00% # Type of FU issued
system.cpu.iq.FU_type_0::IprAccess                  0      0.00%    100.00% # Type of FU issued
system.cpu.iq.FU_type_0::InstPrefetch               0      0.00%    100.00% # Type of FU issued
system.cpu.iq.FU_type_0::total                4796076                       # Type of FU issued
system.cpu.iq.fp_alu_accesses                   93793                       # Number of floating point alu accesses
system.cpu.iq.fp_inst_queue_reads              188984                       # Number of floating instruction queue reads
system.cpu.iq.fp_inst_queue_wakeup_accesses        90084                       # Number of floating instruction queue wakeup accesses
system.cpu.iq.fp_inst_queue_writes             138563                       # Number of floating instruction queue writes
system.cpu.iq.fu_busy_cnt                           0                       # FU busy when requested
system.cpu.iq.fu_busy_rate                          0                       # FU busy rate (busy events/executed inst)
system.cpu.iq.fu_full::No_OpClass                   0                       # attempts to use FU when none available
system.cpu.iq.fu_full::IntAlu                       0                       # attempts to use FU when none available
system.cpu.iq.fu_full::IntMult                      0                       # attempts to use FU when none available
system.cpu.iq.fu_full::IntDiv                       0                       # attempts to use FU when none available
system.cpu.iq.fu_full::FloatAdd                     0                       # attempts to use FU when none available
system.cpu.iq.fu_full::FloatCmp                     0                       # attempts to use FU when none available
system.cpu.iq.fu_full::FloatCvt                     0                       # attempts to use FU when none available
system.cpu.iq.fu_full::FloatMult                    0                       # attempts to use FU when none available
system.cpu.iq.fu_full::FloatMultAcc                 0                       # attempts to use FU when none available
system.cpu.iq.fu_full::FloatDiv                     0                       # attempts to use FU when none available
system.cpu.iq.fu_full::FloatMisc                    0                       # attempts to use FU when none available
system.cpu.iq.fu_full::FloatSqrt                    0                       # attempts to use FU when none available
system.cpu.iq.fu_full::SimdAdd                      0                       # attempts to use FU when none available
system.cpu.iq.fu_full::SimdAddAcc                   0                       # attempts to use FU when none available
system.cpu.iq.fu_full::SimdAlu                      0                       # attempts to use FU when none available
system.cpu.iq.fu_full::SimdCmp                      0                       # attempts to use FU when none available
system.cpu.iq.fu_full::SimdCvt                      0                       # attempts to use FU when none available
system.cpu.iq.fu_full::SimdMisc                     0                       # attempts to use FU when none available
system.cpu.iq.fu_full::SimdMult                     0                       # attempts to use FU when none available
system.cpu.iq.fu_full::SimdMultAcc                  0                       # attempts to use FU when none available
system.cpu.iq.fu_full::SimdShift                    0                       # attempts to use FU when none available
system.cpu.iq.fu_full::SimdShiftAcc                 0                       # attempts to use FU when none available
system.cpu.iq.fu_full::SimdDiv                      0                       # attempts to use FU when none available
system.cpu.iq.fu_full::SimdSqrt                     0                       # attempts to use FU when none available
system.cpu.iq.fu_full::SimdFloatAdd                 0                       # attempts to use FU when none available
system.cpu.iq.fu_full::SimdFloatAlu                 0                       # attempts to use FU when none available
system.cpu.iq.fu_full::SimdFloatCmp                 0                       # attempts to use FU when none available
system.cpu.iq.fu_full::SimdFloatCvt                 0                       # attempts to use FU when none available
system.cpu.iq.fu_full::SimdFloatDiv                 0                       # attempts to use FU when none available
system.cpu.iq.fu_full::SimdFloatMisc                0                       # attempts to use FU when none available
system.cpu.iq.fu_full::SimdFloatMult                0                       # attempts to use FU when none available
system.cpu.iq.fu_full::SimdFloatMultAcc             0                       # attempts to use FU when none available
system.cpu.iq.fu_full::SimdFloatSqrt                0                       # attempts to use FU when none available
system.cpu.iq.fu_full::SimdReduceAdd                0                       # attempts to use FU when none available
system.cpu.iq.fu_full::SimdReduceAlu                0                       # attempts to use FU when none available
system.cpu.iq.fu_full::SimdReduceCmp                0                       # attempts to use FU when none available
system.cpu.iq.fu_full::SimdFloatReduceAdd            0                       # attempts to use FU when none available
system.cpu.iq.fu_full::SimdFloatReduceCmp            0                       # attempts to use FU when none available
system.cpu.iq.fu_full::SimdAes                      0                       # attempts to use FU when none available
system.cpu.iq.fu_full::SimdAesMix                   0                       # attempts to use FU when none available
system.cpu.iq.fu_full::SimdSha1Hash                 0                       # attempts to use FU when none available
system.cpu.iq.fu_full::SimdSha1Hash2                0                       # attempts to use FU when none available
system.cpu.iq.fu_full::SimdSha256Hash               0                       # attempts to use FU when none available
system.cpu.iq.fu_full::SimdSha256Hash2              0                       # attempts to use FU when none available
system.cpu.iq.fu_full::SimdShaSigma2                0                       # attempts to use FU when none available
system.cpu.iq.fu_full::SimdShaSigma3                0                       # attempts to use FU when none available
system.cpu.iq.fu_full::SimdPredAlu                  0                       # attempts to use FU when none available
system.cpu.iq.fu_full::MemRead                      0                       # attempts to use FU when none available
system.cpu.iq.fu_full::MemWrite                     0                       # attempts to use FU when none available
system.cpu.iq.fu_full::FloatMemRead                 0                       # attempts to use FU when none available
system.cpu.iq.fu_full::FloatMemWrite                0                       # attempts to use FU when none available
system.cpu.iq.fu_full::IprAccess                    0                       # attempts to use FU when none available
system.cpu.iq.fu_full::InstPrefetch                 0                       # attempts to use FU when none available
system.cpu.iq.int_alu_accesses                4674950                       # Number of integer alu accesses
system.cpu.iq.int_inst_queue_reads           12255673                       # Number of integer instruction queue reads
system.cpu.iq.int_inst_queue_wakeup_accesses      4648068                       # Number of integer instruction queue wakeup accesses
system.cpu.iq.int_inst_queue_writes           5879565                       # Number of integer instruction queue writes
system.cpu.iq.iqInstsAdded                    5116948                       # Number of instructions added to the IQ (excludes non-spec)
system.cpu.iq.iqInstsIssued                   4796076                       # Number of instructions issued
system.cpu.iq.iqNonSpecInstsAdded                1276                       # Number of non-speculative instructions added to the IQ
system.cpu.iq.iqSquashedInstsExamined          899819                       # Number of squashed instructions iterated over during squash; mainly for profiling
system.cpu.iq.iqSquashedInstsIssued             18721                       # Number of squashed instructions issued
system.cpu.iq.iqSquashedNonSpecRemoved            412                       # Number of squashed non-spec instructions that were removed
system.cpu.iq.iqSquashedOperandsExamined      1330417                       # Number of squashed operands that are examined and possibly removed from graph
system.cpu.iq.issued_per_cycle::samples       2833787                       # Number of insts issued each cycle
system.cpu.iq.issued_per_cycle::mean         1.692462                       # Number of insts issued each cycle
system.cpu.iq.issued_per_cycle::stdev        1.664483                       # Number of insts issued each cycle
system.cpu.iq.issued_per_cycle::underflows            0      0.00%      0.00% # Number of insts issued each cycle
system.cpu.iq.issued_per_cycle::0             1204142     42.49%     42.49% # Number of insts issued each cycle
system.cpu.iq.issued_per_cycle::1              208768      7.37%     49.86% # Number of insts issued each cycle
system.cpu.iq.issued_per_cycle::2              349393     12.33%     62.19% # Number of insts issued each cycle
system.cpu.iq.issued_per_cycle::3              397414     14.02%     76.21% # Number of insts issued each cycle
system.cpu.iq.issued_per_cycle::4              674070     23.79%    100.00% # Number of insts issued each cycle
system.cpu.iq.issued_per_cycle::overflows            0      0.00%    100.00% # Number of insts issued each cycle
system.cpu.iq.issued_per_cycle::min_value            0                       # Number of insts issued each cycle
system.cpu.iq.issued_per_cycle::max_value            4                       # Number of insts issued each cycle
system.cpu.iq.issued_per_cycle::total         2833787                       # Number of insts issued each cycle
system.cpu.iq.rate                           1.597548                       # Inst issue rate
system.cpu.iq.vec_alu_accesses                      0                       # Number of vector alu accesses
system.cpu.iq.vec_inst_queue_reads                  0                       # Number of vector instruction queue reads
system.cpu.iq.vec_inst_queue_wakeup_accesses            0                       # Number of vector instruction queue wakeup accesses
system.cpu.iq.vec_inst_queue_writes                 0                       # Number of vector instruction queue writes
system.cpu.itb.rdAccesses                           0                       # TLB accesses on read requests
system.cpu.itb.rdMisses                             0                       # TLB misses on read requests
system.cpu.itb.wrAccesses                      294797                       # TLB accesses on write requests
system.cpu.itb.wrMisses                           414                       # TLB misses on write requests
system.cpu.memDep0.conflictingLoads             13767                       # Number of conflicting loads.
system.cpu.memDep0.conflictingStores             7601                       # Number of conflicting stores.
system.cpu.memDep0.insertedLoads               719845                       # Number of loads inserted to the mem dependence unit.
system.cpu.memDep0.insertedStores              253351                       # Number of stores inserted to the mem dependence unit.
system.cpu.misc_regfile_reads                 1870458                       # number of misc regfile reads
system.cpu.misc_regfile_writes                    774                       # number of misc regfile writes
system.cpu.numCycles                          3002148                       # number of cpu cycles simulated
system.cpu.numWorkItemsCompleted                    0                       # number of work items this cpu completed
system.cpu.numWorkItemsStarted                      0                       # number of work items this cpu started
system.cpu.process.numSyscalls                     89                       # Number of system calls
system.cpu.rename.BlockCycles                  853104                       # Number of cycles rename is blocking
system.cpu.rename.CommittedMaps               5553166                       # Number of HB maps that are committed
system.cpu.rename.FullRegisterEvents              139                       # Number of times there has been no free registers
system.cpu.rename.IQFullEvents                  43637                       # Number of times rename has blocked due to IQ full
system.cpu.rename.IdleCycles                   405318                       # Number of cycles rename is idle
system.cpu.rename.LQFullEvents                  16560                       # Number of times rename has blocked due to LQ full
system.cpu.rename.ROBFullEvents                  4472                       # Number of times rename has blocked due to ROB full
system.cpu.rename.RenameLookups              13679966                       # Number of register rename lookups that rename has made
system.cpu.rename.RenamedInsts                5263252                       # Number of instructions processed by rename
system.cpu.rename.RenamedOperands             6963954                       # Number of destination operands rename has renamed
system.cpu.rename.RunCycles                   1354324                       # Number of cycles rename is running
system.cpu.rename.SQFullEvents                  77064                       # Number of times rename has blocked due to SQ full
system.cpu.rename.SquashCycles                  25081                       # Number of cycles rename is squashing
system.cpu.rename.UnblockCycles                174397                       # Number of cycles rename is unblocking
system.cpu.rename.UndoneMaps                  1410765                       # Number of HB maps that are undone due to squashing
system.cpu.rename.fp_rename_lookups            162294                       # Number of floating rename lookups
system.cpu.rename.int_rename_lookups          8329508                       # Number of integer rename lookups
system.cpu.rename.serializeStallCycles          21563                       # count of cycles rename stalled for serializing inst
system.cpu.rename.serializingInsts               1017                       # count of serializing insts renamed
system.cpu.rename.skidInsts                    201692                       # count of insts added to the skid buffer
system.cpu.rename.tempSerializingInsts           1081                       # count of temporary serializing insts renamed
system.cpu.rob.rob_reads                      6996612                       # The number of ROB reads
system.cpu.rob.rob_writes                    10483775                       # The number of ROB writes
system.cpu.timesIdled                            1687                       # Number of times that the entire CPU went into an idle state and unscheduled itself
system.l2bus.snoop_filter.hit_multi_requests           14                       # Number of requests hitting in the snoop filter with multiple (>1) holders of the requested data.
system.l2bus.snoop_filter.hit_multi_snoops            0                       # Number of snoops hitting in the snoop filter with multiple (>1) holders of the requested data.
system.l2bus.snoop_filter.hit_single_requests        18749                       # Number of requests hitting in the snoop filter with a single holder of the requested data.
system.l2bus.snoop_filter.hit_single_snoops          455                       # Number of snoops hitting in the snoop filter with a single holder of the requested data.
system.l2bus.snoop_filter.tot_requests          38778                       # Total number of requests made to the snoop filter.
system.l2bus.snoop_filter.tot_snoops              455                       # Total number of snoops made to the snoop filter.
system.l2cache.prefetcher.num_hwpf_issued          614                       # number of hwpf issued
system.l2cache.prefetcher.pfBufferHit               0                       # number of redundant prefetches already in prefetch queue
system.l2cache.prefetcher.pfIdentified            614                       # number of prefetch candidates identified
system.l2cache.prefetcher.pfInCache                 0                       # number of redundant prefetches already in cache/mshr dropped
system.l2cache.prefetcher.pfRemovedFull             0                       # number of prefetches dropped due to prefetch queue size
system.l2cache.prefetcher.pfSpanPage              114                       # number of prefetches that crossed the page
system.membus.snoop_filter.hit_multi_requests            0                       # Number of requests hitting in the snoop filter with multiple (>1) holders of the requested data.
system.membus.snoop_filter.hit_multi_snoops            0                       # Number of snoops hitting in the snoop filter with multiple (>1) holders of the requested data.
system.membus.snoop_filter.hit_single_requests         9558                       # Number of requests hitting in the snoop filter with a single holder of the requested data.
system.membus.snoop_filter.hit_single_snoops            0                       # Number of snoops hitting in the snoop filter with a single holder of the requested data.
system.membus.snoop_filter.tot_requests         23244                       # Total number of requests made to the snoop filter.
system.membus.snoop_filter.tot_snoops               0                       # Total number of snoops made to the snoop filter.
system.membus.pwrStateResidencyTicks::UNDEFINED   1200858800                       # Cumulative time (in ticks) in various power states
system.membus.trans_dist::ReadResp              12372                       # Transaction distribution
system.membus.trans_dist::WritebackDirty         1353                       # Transaction distribution
system.membus.trans_dist::CleanEvict             8205                       # Transaction distribution
system.membus.trans_dist::ReadExReq              1314                       # Transaction distribution
system.membus.trans_dist::ReadExResp             1314                       # Transaction distribution
system.membus.trans_dist::ReadSharedReq         12372                       # Transaction distribution
system.membus.pkt_count_system.l2cache.mem_side::system.mem_ctrl.port        36930                       # Packet count per connected master and slave (bytes)
system.membus.pkt_count_system.l2cache.mem_side::total        36930                       # Packet count per connected master and slave (bytes)
system.membus.pkt_count::total                  36930                       # Packet count per connected master and slave (bytes)
system.membus.pkt_size_system.l2cache.mem_side::system.mem_ctrl.port       962496                       # Cumulative packet size per connected master and slave (bytes)
system.membus.pkt_size_system.l2cache.mem_side::total       962496                       # Cumulative packet size per connected master and slave (bytes)
system.membus.pkt_size::total                  962496                       # Cumulative packet size per connected master and slave (bytes)
system.membus.snoops                                0                       # Total snoops (count)
system.membus.snoopTraffic                          0                       # Total snoop traffic (bytes)
system.membus.snoop_fanout::samples             13686                       # Request fanout histogram
system.membus.snoop_fanout::mean                    0                       # Request fanout histogram
system.membus.snoop_fanout::stdev                   0                       # Request fanout histogram
system.membus.snoop_fanout::underflows              0      0.00%      0.00% # Request fanout histogram
system.membus.snoop_fanout::0                   13686    100.00%    100.00% # Request fanout histogram
system.membus.snoop_fanout::1                       0      0.00%    100.00% # Request fanout histogram
system.membus.snoop_fanout::overflows               0      0.00%    100.00% # Request fanout histogram
system.membus.snoop_fanout::min_value               0                       # Request fanout histogram
system.membus.snoop_fanout::max_value               0                       # Request fanout histogram
system.membus.snoop_fanout::total               13686                       # Request fanout histogram
system.membus.reqLayer2.occupancy            11483435                       # Layer occupancy (ticks)
system.membus.reqLayer2.utilization               1.0                       # Layer utilization (%)
system.membus.respLayer0.occupancy           29697765                       # Layer occupancy (ticks)
system.membus.respLayer0.utilization              2.5                       # Layer utilization (%)
system.l2bus.pwrStateResidencyTicks::UNDEFINED   1200858800                       # Cumulative time (in ticks) in various power states
system.l2bus.trans_dist::ReadResp               17994                       # Transaction distribution
system.l2bus.trans_dist::WritebackDirty          4131                       # Transaction distribution
system.l2bus.trans_dist::CleanEvict             24269                       # Transaction distribution
system.l2bus.trans_dist::HardPFReq                857                       # Transaction distribution
system.l2bus.trans_dist::ReadExReq               2035                       # Transaction distribution
system.l2bus.trans_dist::ReadExResp              2035                       # Transaction distribution
system.l2bus.trans_dist::ReadSharedReq          17994                       # Transaction distribution
system.l2bus.pkt_count_system.cpu.icache.mem_side::system.l2cache.cpu_side         8907                       # Packet count per connected master and slave (bytes)
system.l2bus.pkt_count_system.cpu.dcache.mem_side::system.l2cache.cpu_side        49895                       # Packet count per connected master and slave (bytes)
system.l2bus.pkt_count::total                   58802                       # Packet count per connected master and slave (bytes)
system.l2bus.pkt_size_system.cpu.icache.mem_side::system.l2cache.cpu_side       195584                       # Cumulative packet size per connected master and slave (bytes)
system.l2bus.pkt_size_system.cpu.dcache.mem_side::system.l2cache.cpu_side      1263744                       # Cumulative packet size per connected master and slave (bytes)
system.l2bus.pkt_size::total                  1459328                       # Cumulative packet size per connected master and slave (bytes)
system.l2bus.snoops                             10513                       # Total snoops (count)
system.l2bus.snoopTraffic                       86912                       # Total snoop traffic (bytes)
system.l2bus.snoop_fanout::samples              30537                       # Request fanout histogram
system.l2bus.snoop_fanout::mean              0.015358                       # Request fanout histogram
system.l2bus.snoop_fanout::stdev             0.122976                       # Request fanout histogram
system.l2bus.snoop_fanout::underflows               0      0.00%      0.00% # Request fanout histogram
system.l2bus.snoop_fanout::0                    30068     98.46%     98.46% # Request fanout histogram
system.l2bus.snoop_fanout::1                      469      1.54%    100.00% # Request fanout histogram
system.l2bus.snoop_fanout::2                        0      0.00%    100.00% # Request fanout histogram
system.l2bus.snoop_fanout::overflows                0      0.00%    100.00% # Request fanout histogram
system.l2bus.snoop_fanout::min_value                0                       # Request fanout histogram
system.l2bus.snoop_fanout::max_value                1                       # Request fanout histogram
system.l2bus.snoop_fanout::total                30537                       # Request fanout histogram
system.l2bus.respLayer1.occupancy            20369997                       # Layer occupancy (ticks)
system.l2bus.respLayer1.utilization               1.7                       # Layer utilization (%)
system.l2bus.reqLayer0.occupancy             19154738                       # Layer occupancy (ticks)
system.l2bus.reqLayer0.utilization                1.6                       # Layer utilization (%)
system.l2bus.respLayer0.occupancy             3666798                       # Layer occupancy (ticks)
system.l2bus.respLayer0.utilization               0.3                       # Layer utilization (%)
system.clk_domain.clock                           400                       # Clock period in ticks
system.clk_domain.voltage_domain.voltage            1                       # Voltage in Volts
system.cpu.pwrStateResidencyTicks::ON      1200858800                       # Cumulative time (in ticks) in various power states
system.cpu.icache.pwrStateResidencyTicks::UNDEFINED   1200858800                       # Cumulative time (in ticks) in various power states
system.cpu.icache.demand_hits::.cpu.inst       290839                       # number of demand (read+write) hits
system.cpu.icache.demand_hits::total           290839                       # number of demand (read+write) hits
system.cpu.icache.overall_hits::.cpu.inst       290839                       # number of overall hits
system.cpu.icache.overall_hits::total          290839                       # number of overall hits
system.cpu.icache.demand_misses::.cpu.inst         3805                       # number of demand (read+write) misses
system.cpu.icache.demand_misses::total           3805                       # number of demand (read+write) misses
system.cpu.icache.overall_misses::.cpu.inst         3805                       # number of overall misses
system.cpu.icache.overall_misses::total          3805                       # number of overall misses
system.cpu.icache.demand_miss_latency::.cpu.inst    185400800                       # number of demand (read+write) miss cycles
system.cpu.icache.demand_miss_latency::total    185400800                       # number of demand (read+write) miss cycles
system.cpu.icache.overall_miss_latency::.cpu.inst    185400800                       # number of overall miss cycles
system.cpu.icache.overall_miss_latency::total    185400800                       # number of overall miss cycles
system.cpu.icache.demand_accesses::.cpu.inst       294644                       # number of demand (read+write) accesses
system.cpu.icache.demand_accesses::total       294644                       # number of demand (read+write) accesses
system.cpu.icache.overall_accesses::.cpu.inst       294644                       # number of overall (read+write) accesses
system.cpu.icache.overall_accesses::total       294644                       # number of overall (read+write) accesses
system.cpu.icache.demand_miss_rate::.cpu.inst     0.012914                       # miss rate for demand accesses
system.cpu.icache.demand_miss_rate::total     0.012914                       # miss rate for demand accesses
system.cpu.icache.overall_miss_rate::.cpu.inst     0.012914                       # miss rate for overall accesses
system.cpu.icache.overall_miss_rate::total     0.012914                       # miss rate for overall accesses
system.cpu.icache.demand_avg_miss_latency::.cpu.inst 48725.571616                       # average overall miss latency
system.cpu.icache.demand_avg_miss_latency::total 48725.571616                       # average overall miss latency
system.cpu.icache.overall_avg_miss_latency::.cpu.inst 48725.571616                       # average overall miss latency
system.cpu.icache.overall_avg_miss_latency::total 48725.571616                       # average overall miss latency
system.cpu.icache.blocked_cycles::no_mshrs          198                       # number of cycles access was blocked
system.cpu.icache.blocked_cycles::no_targets            0                       # number of cycles access was blocked
system.cpu.icache.blocked::no_mshrs                 5                       # number of cycles access was blocked
system.cpu.icache.blocked::no_targets               0                       # number of cycles access was blocked
system.cpu.icache.avg_blocked_cycles::no_mshrs    39.600000                       # average number of cycles each access was blocked
system.cpu.icache.avg_blocked_cycles::no_targets          nan                       # average number of cycles each access was blocked
system.cpu.icache.writebacks::.writebacks            3                       # number of writebacks
system.cpu.icache.writebacks::total                 3                       # number of writebacks
system.cpu.icache.demand_mshr_hits::.cpu.inst          750                       # number of demand (read+write) MSHR hits
system.cpu.icache.demand_mshr_hits::total          750                       # number of demand (read+write) MSHR hits
system.cpu.icache.overall_mshr_hits::.cpu.inst          750                       # number of overall MSHR hits
system.cpu.icache.overall_mshr_hits::total          750                       # number of overall MSHR hits
system.cpu.icache.demand_mshr_misses::.cpu.inst         3055                       # number of demand (read+write) MSHR misses
system.cpu.icache.demand_mshr_misses::total         3055                       # number of demand (read+write) MSHR misses
system.cpu.icache.overall_mshr_misses::.cpu.inst         3055                       # number of overall MSHR misses
system.cpu.icache.overall_mshr_misses::total         3055                       # number of overall MSHR misses
system.cpu.icache.demand_mshr_miss_latency::.cpu.inst    149491200                       # number of demand (read+write) MSHR miss cycles
system.cpu.icache.demand_mshr_miss_latency::total    149491200                       # number of demand (read+write) MSHR miss cycles
system.cpu.icache.overall_mshr_miss_latency::.cpu.inst    149491200                       # number of overall MSHR miss cycles
system.cpu.icache.overall_mshr_miss_latency::total    149491200                       # number of overall MSHR miss cycles
system.cpu.icache.demand_mshr_miss_rate::.cpu.inst     0.010368                       # mshr miss rate for demand accesses
system.cpu.icache.demand_mshr_miss_rate::total     0.010368                       # mshr miss rate for demand accesses
system.cpu.icache.overall_mshr_miss_rate::.cpu.inst     0.010368                       # mshr miss rate for overall accesses
system.cpu.icache.overall_mshr_miss_rate::total     0.010368                       # mshr miss rate for overall accesses
system.cpu.icache.demand_avg_mshr_miss_latency::.cpu.inst 48933.289689                       # average overall mshr miss latency
system.cpu.icache.demand_avg_mshr_miss_latency::total 48933.289689                       # average overall mshr miss latency
system.cpu.icache.overall_avg_mshr_miss_latency::.cpu.inst 48933.289689                       # average overall mshr miss latency
system.cpu.icache.overall_avg_mshr_miss_latency::total 48933.289689                       # average overall mshr miss latency
system.cpu.icache.replacements                   2799                       # number of replacements
system.cpu.icache.ReadReq_hits::.cpu.inst       290839                       # number of ReadReq hits
system.cpu.icache.ReadReq_hits::total          290839                       # number of ReadReq hits
system.cpu.icache.ReadReq_misses::.cpu.inst         3805                       # number of ReadReq misses
system.cpu.icache.ReadReq_misses::total          3805                       # number of ReadReq misses
system.cpu.icache.ReadReq_miss_latency::.cpu.inst    185400800                       # number of ReadReq miss cycles
system.cpu.icache.ReadReq_miss_latency::total    185400800                       # number of ReadReq miss cycles
system.cpu.icache.ReadReq_accesses::.cpu.inst       294644                       # number of ReadReq accesses(hits+misses)
system.cpu.icache.ReadReq_accesses::total       294644                       # number of ReadReq accesses(hits+misses)
system.cpu.icache.ReadReq_miss_rate::.cpu.inst     0.012914                       # miss rate for ReadReq accesses
system.cpu.icache.ReadReq_miss_rate::total     0.012914                       # miss rate for ReadReq accesses
system.cpu.icache.ReadReq_avg_miss_latency::.cpu.inst 48725.571616                       # average ReadReq miss latency
system.cpu.icache.ReadReq_avg_miss_latency::total 48725.571616                       # average ReadReq miss latency
system.cpu.icache.ReadReq_mshr_hits::.cpu.inst          750                       # number of ReadReq MSHR hits
system.cpu.icache.ReadReq_mshr_hits::total          750                       # number of ReadReq MSHR hits
system.cpu.icache.ReadReq_mshr_misses::.cpu.inst         3055                       # number of ReadReq MSHR misses
system.cpu.icache.ReadReq_mshr_misses::total         3055                       # number of ReadReq MSHR misses
system.cpu.icache.ReadReq_mshr_miss_latency::.cpu.inst    149491200                       # number of ReadReq MSHR miss cycles
system.cpu.icache.ReadReq_mshr_miss_latency::total    149491200                       # number of ReadReq MSHR miss cycles
system.cpu.icache.ReadReq_mshr_miss_rate::.cpu.inst     0.010368                       # mshr miss rate for ReadReq accesses
system.cpu.icache.ReadReq_mshr_miss_rate::total     0.010368                       # mshr miss rate for ReadReq accesses
system.cpu.icache.ReadReq_avg_mshr_miss_latency::.cpu.inst 48933.289689                       # average ReadReq mshr miss latency
system.cpu.icache.ReadReq_avg_mshr_miss_latency::total 48933.289689                       # average ReadReq mshr miss latency
system.cpu.icache.prefetcher.pwrStateResidencyTicks::UNDEFINED   1200858800                       # Cumulative time (in ticks) in various power states
system.cpu.icache.tags.pwrStateResidencyTicks::UNDEFINED   1200858800                       # Cumulative time (in ticks) in various power states
system.cpu.icache.tags.tagsinuse           253.761049                       # Cycle average of tags in use
system.cpu.icache.tags.total_refs              261976                       # Total number of references to valid blocks.
system.cpu.icache.tags.sampled_refs              2799                       # Sample count of references to valid blocks.
system.cpu.icache.tags.avg_refs             93.596284                       # Average number of references to valid blocks.
system.cpu.icache.tags.warmup_cycle             66400                       # Cycle when the warmup percentage was hit.
system.cpu.icache.tags.occ_blocks::.cpu.inst   253.761049                       # Average occupied blocks per requestor
system.cpu.icache.tags.occ_percent::.cpu.inst     0.991254                       # Average percentage of cache occupancy
system.cpu.icache.tags.occ_percent::total     0.991254                       # Average percentage of cache occupancy
system.cpu.icache.tags.occ_task_id_blocks::1024          256                       # Occupied blocks per task id
system.cpu.icache.tags.age_task_id_blocks_1024::0           73                       # Occupied blocks per task id
system.cpu.icache.tags.age_task_id_blocks_1024::2          181                       # Occupied blocks per task id
system.cpu.icache.tags.age_task_id_blocks_1024::3            2                       # Occupied blocks per task id
system.cpu.icache.tags.occ_task_id_percent::1024            1                       # Percentage of cache occupancy per task id
system.cpu.icache.tags.tag_accesses            592343                       # Number of tag accesses
system.cpu.icache.tags.data_accesses           592343                       # Number of data accesses
system.cpu.dtb.walker.pwrStateResidencyTicks::UNDEFINED   1200858800                       # Cumulative time (in ticks) in various power states
system.cpu.interrupts.clk_domain.clock           6400                       # Clock period in ticks
system.cpu.itb.walker.pwrStateResidencyTicks::UNDEFINED   1200858800                       # Cumulative time (in ticks) in various power states
system.cpu.dcache.pwrStateResidencyTicks::UNDEFINED   1200858800                       # Cumulative time (in ticks) in various power states
system.cpu.dcache.demand_hits::.cpu.data       828375                       # number of demand (read+write) hits
system.cpu.dcache.demand_hits::total           828375                       # number of demand (read+write) hits
system.cpu.dcache.overall_hits::.cpu.data       828375                       # number of overall hits
system.cpu.dcache.overall_hits::total          828375                       # number of overall hits
system.cpu.dcache.demand_misses::.cpu.data        34963                       # number of demand (read+write) misses
system.cpu.dcache.demand_misses::total          34963                       # number of demand (read+write) misses
system.cpu.dcache.overall_misses::.cpu.data        34963                       # number of overall misses
system.cpu.dcache.overall_misses::total         34963                       # number of overall misses
system.cpu.dcache.demand_miss_latency::.cpu.data   1690665999                       # number of demand (read+write) miss cycles
system.cpu.dcache.demand_miss_latency::total   1690665999                       # number of demand (read+write) miss cycles
system.cpu.dcache.overall_miss_latency::.cpu.data   1690665999                       # number of overall miss cycles
system.cpu.dcache.overall_miss_latency::total   1690665999                       # number of overall miss cycles
system.cpu.dcache.demand_accesses::.cpu.data       863338                       # number of demand (read+write) accesses
system.cpu.dcache.demand_accesses::total       863338                       # number of demand (read+write) accesses
system.cpu.dcache.overall_accesses::.cpu.data       863338                       # number of overall (read+write) accesses
system.cpu.dcache.overall_accesses::total       863338                       # number of overall (read+write) accesses
system.cpu.dcache.demand_miss_rate::.cpu.data     0.040497                       # miss rate for demand accesses
system.cpu.dcache.demand_miss_rate::total     0.040497                       # miss rate for demand accesses
system.cpu.dcache.overall_miss_rate::.cpu.data     0.040497                       # miss rate for overall accesses
system.cpu.dcache.overall_miss_rate::total     0.040497                       # miss rate for overall accesses
system.cpu.dcache.demand_avg_miss_latency::.cpu.data 48355.861883                       # average overall miss latency
system.cpu.dcache.demand_avg_miss_latency::total 48355.861883                       # average overall miss latency
system.cpu.dcache.overall_avg_miss_latency::.cpu.data 48355.861883                       # average overall miss latency
system.cpu.dcache.overall_avg_miss_latency::total 48355.861883                       # average overall miss latency
system.cpu.dcache.blocked_cycles::no_mshrs        29179                       # number of cycles access was blocked
system.cpu.dcache.blocked_cycles::no_targets          320                       # number of cycles access was blocked
system.cpu.dcache.blocked::no_mshrs               719                       # number of cycles access was blocked
system.cpu.dcache.blocked::no_targets               2                       # number of cycles access was blocked
system.cpu.dcache.avg_blocked_cycles::no_mshrs    40.582754                       # average number of cycles each access was blocked
system.cpu.dcache.avg_blocked_cycles::no_targets          160                       # average number of cycles each access was blocked
system.cpu.dcache.unused_prefetches              1744                       # number of HardPF blocks evicted w/o reference
system.cpu.dcache.writebacks::.writebacks         2775                       # number of writebacks
system.cpu.dcache.writebacks::total              2775                       # number of writebacks
system.cpu.dcache.demand_mshr_hits::.cpu.data        22305                       # number of demand (read+write) MSHR hits
system.cpu.dcache.demand_mshr_hits::total        22305                       # number of demand (read+write) MSHR hits
system.cpu.dcache.overall_mshr_hits::.cpu.data        22305                       # number of overall MSHR hits
system.cpu.dcache.overall_mshr_hits::total        22305                       # number of overall MSHR hits
system.cpu.dcache.demand_mshr_misses::.cpu.data        12658                       # number of demand (read+write) MSHR misses
system.cpu.dcache.demand_mshr_misses::total        12658                       # number of demand (read+write) MSHR misses
system.cpu.dcache.overall_mshr_misses::.cpu.data        12658                       # number of overall MSHR misses
system.cpu.dcache.overall_mshr_misses::.cpu.dcache.prefetcher         4316                       # number of overall MSHR misses
system.cpu.dcache.overall_mshr_misses::total        16974                       # number of overall MSHR misses
system.cpu.dcache.demand_mshr_miss_latency::.cpu.data    580550799                       # number of demand (read+write) MSHR miss cycles
system.cpu.dcache.demand_mshr_miss_latency::total    580550799                       # number of demand (read+write) MSHR miss cycles
system.cpu.dcache.overall_mshr_miss_latency::.cpu.data    580550799                       # number of overall MSHR miss cycles
system.cpu.dcache.overall_mshr_miss_latency::.cpu.dcache.prefetcher    253898657                       # number of overall MSHR miss cycles
system.cpu.dcache.overall_mshr_miss_latency::total    834449456                       # number of overall MSHR miss cycles
system.cpu.dcache.demand_mshr_miss_rate::.cpu.data     0.014662                       # mshr miss rate for demand accesses
system.cpu.dcache.demand_mshr_miss_rate::total     0.014662                       # mshr miss rate for demand accesses
system.cpu.dcache.overall_mshr_miss_rate::.cpu.data     0.014662                       # mshr miss rate for overall accesses
system.cpu.dcache.overall_mshr_miss_rate::.cpu.dcache.prefetcher          inf                       # mshr miss rate for overall accesses
system.cpu.dcache.overall_mshr_miss_rate::total     0.019661                       # mshr miss rate for overall accesses
system.cpu.dcache.demand_avg_mshr_miss_latency::.cpu.data 45864.338679                       # average overall mshr miss latency
system.cpu.dcache.demand_avg_mshr_miss_latency::total 45864.338679                       # average overall mshr miss latency
system.cpu.dcache.overall_avg_mshr_miss_latency::.cpu.data 45864.338679                       # average overall mshr miss latency
system.cpu.dcache.overall_avg_mshr_miss_latency::.cpu.dcache.prefetcher 58827.306997                       # average overall mshr miss latency
system.cpu.dcache.overall_avg_mshr_miss_latency::total 49160.448686                       # average overall mshr miss latency
system.cpu.dcache.replacements                  15950                       # number of replacements
system.cpu.dcache.ReadReq_hits::.cpu.data       607869                       # number of ReadReq hits
system.cpu.dcache.ReadReq_hits::total          607869                       # number of ReadReq hits
system.cpu.dcache.ReadReq_misses::.cpu.data        32898                       # number of ReadReq misses
system.cpu.dcache.ReadReq_misses::total         32898                       # number of ReadReq misses
system.cpu.dcache.ReadReq_miss_latency::.cpu.data   1587580400                       # number of ReadReq miss cycles
system.cpu.dcache.ReadReq_miss_latency::total   1587580400                       # number of ReadReq miss cycles
system.cpu.dcache.ReadReq_accesses::.cpu.data       640767                       # number of ReadReq accesses(hits+misses)
system.cpu.dcache.ReadReq_accesses::total       640767                       # number of ReadReq accesses(hits+misses)
system.cpu.dcache.ReadReq_miss_rate::.cpu.data     0.051342                       # miss rate for ReadReq accesses
system.cpu.dcache.ReadReq_miss_rate::total     0.051342                       # miss rate for ReadReq accesses
system.cpu.dcache.ReadReq_avg_miss_latency::.cpu.data 48257.657000                       # average ReadReq miss latency
system.cpu.dcache.ReadReq_avg_miss_latency::total 48257.657000                       # average ReadReq miss latency
system.cpu.dcache.ReadReq_mshr_hits::.cpu.data        22275                       # number of ReadReq MSHR hits
system.cpu.dcache.ReadReq_mshr_hits::total        22275                       # number of ReadReq MSHR hits
system.cpu.dcache.ReadReq_mshr_misses::.cpu.data        10623                       # number of ReadReq MSHR misses
system.cpu.dcache.ReadReq_mshr_misses::total        10623                       # number of ReadReq MSHR misses
system.cpu.dcache.ReadReq_mshr_miss_latency::.cpu.data    480351600                       # number of ReadReq MSHR miss cycles
system.cpu.dcache.ReadReq_mshr_miss_latency::total    480351600                       # number of ReadReq MSHR miss cycles
system.cpu.dcache.ReadReq_mshr_miss_rate::.cpu.data     0.016579                       # mshr miss rate for ReadReq accesses
system.cpu.dcache.ReadReq_mshr_miss_rate::total     0.016579                       # mshr miss rate for ReadReq accesses
system.cpu.dcache.ReadReq_avg_mshr_miss_latency::.cpu.data 45218.073990                       # average ReadReq mshr miss latency
system.cpu.dcache.ReadReq_avg_mshr_miss_latency::total 45218.073990                       # average ReadReq mshr miss latency
system.cpu.dcache.WriteReq_hits::.cpu.data       220506                       # number of WriteReq hits
system.cpu.dcache.WriteReq_hits::total         220506                       # number of WriteReq hits
system.cpu.dcache.WriteReq_misses::.cpu.data         2065                       # number of WriteReq misses
system.cpu.dcache.WriteReq_misses::total         2065                       # number of WriteReq misses
system.cpu.dcache.WriteReq_miss_latency::.cpu.data    103085599                       # number of WriteReq miss cycles
system.cpu.dcache.WriteReq_miss_latency::total    103085599                       # number of WriteReq miss cycles
system.cpu.dcache.WriteReq_accesses::.cpu.data       222571                       # number of WriteReq accesses(hits+misses)
system.cpu.dcache.WriteReq_accesses::total       222571                       # number of WriteReq accesses(hits+misses)
system.cpu.dcache.WriteReq_miss_rate::.cpu.data     0.009278                       # miss rate for WriteReq accesses
system.cpu.dcache.WriteReq_miss_rate::total     0.009278                       # miss rate for WriteReq accesses
system.cpu.dcache.WriteReq_avg_miss_latency::.cpu.data 49920.386925                       # average WriteReq miss latency
system.cpu.dcache.WriteReq_avg_miss_latency::total 49920.386925                       # average WriteReq miss latency
system.cpu.dcache.WriteReq_mshr_hits::.cpu.data           30                       # number of WriteReq MSHR hits
system.cpu.dcache.WriteReq_mshr_hits::total           30                       # number of WriteReq MSHR hits
system.cpu.dcache.WriteReq_mshr_misses::.cpu.data         2035                       # number of WriteReq MSHR misses
[...]
system.l2cache.demand_mshr_miss_rate::.cpu.data     0.489933                       # mshr miss rate for demand accesses
system.l2cache.demand_mshr_miss_rate::.cpu.dcache.prefetcher     0.717949                       # mshr miss rate for demand accesses
system.l2cache.demand_mshr_miss_rate::total     0.493177                       # mshr miss rate for demand accesses
system.l2cache.overall_mshr_miss_rate::.cpu.inst     0.467692                       # mshr miss rate for overall accesses
system.l2cache.overall_mshr_miss_rate::.cpu.data     0.489933                       # mshr miss rate for overall accesses
system.l2cache.overall_mshr_miss_rate::.cpu.dcache.prefetcher     0.717949                       # mshr miss rate for overall accesses
system.l2cache.overall_mshr_miss_rate::.l2cache.prefetcher          inf                       # mshr miss rate for overall accesses
system.l2cache.overall_mshr_miss_rate::total     0.497076                       # mshr miss rate for overall accesses
system.l2cache.demand_avg_mshr_miss_latency::.cpu.inst 60702.631579                       # average overall mshr miss latency
system.l2cache.demand_avg_mshr_miss_latency::.cpu.data 58180.821918                       # average overall mshr miss latency
system.l2cache.demand_avg_mshr_miss_latency::.cpu.dcache.prefetcher 64284.821429                       # average overall mshr miss latency
system.l2cache.demand_avg_mshr_miss_latency::total 60371.442688                       # average overall mshr miss latency
system.l2cache.overall_avg_mshr_miss_latency::.cpu.inst 60702.631579                       # average overall mshr miss latency
system.l2cache.overall_avg_mshr_miss_latency::.cpu.data 58180.821918                       # average overall mshr miss latency
system.l2cache.overall_avg_mshr_miss_latency::.cpu.dcache.prefetcher 64284.821429                       # average overall mshr miss latency
system.l2cache.overall_avg_mshr_miss_latency::.l2cache.prefetcher 72598.500000                       # average overall mshr miss latency
system.l2cache.overall_avg_mshr_miss_latency::total 60467.341176                       # average overall mshr miss latency
system.l2cache.replacements                       261                       # number of replacements
system.l2cache.WritebackDirty_hits::.writebacks           50                       # number of WritebackDirty hits
system.l2cache.WritebackDirty_hits::total           50                       # number of WritebackDirty hits
system.l2cache.WritebackDirty_accesses::.writebacks           50                       # number of WritebackDirty accesses(hits+misses)
system.l2cache.WritebackDirty_accesses::total           50                       # number of WritebackDirty accesses(hits+misses)
system.l2cache.CleanEvict_mshr_misses::.writebacks            7                       # number of CleanEvict MSHR misses
system.l2cache.CleanEvict_mshr_misses::total            7                       # number of CleanEvict MSHR misses
system.l2cache.CleanEvict_mshr_miss_rate::.writebacks          inf                       # mshr miss rate for CleanEvict accesses
system.l2cache.CleanEvict_mshr_miss_rate::total          inf                       # mshr miss rate for CleanEvict accesses
system.l2cache.HardPFReq_mshr_misses::.l2cache.prefetcher            2                       # number of HardPFReq MSHR misses
system.l2cache.HardPFReq_mshr_misses::total            2                       # number of HardPFReq MSHR misses
system.l2cache.HardPFReq_mshr_miss_latency::.l2cache.prefetcher       145197                       # number of HardPFReq MSHR miss cycles
system.l2cache.HardPFReq_mshr_miss_latency::total       145197                       # number of HardPFReq MSHR miss cycles
system.l2cache.HardPFReq_mshr_miss_rate::.l2cache.prefetcher          inf                       # mshr miss rate for HardPFReq accesses
system.l2cache.HardPFReq_mshr_miss_rate::total          inf                       # mshr miss rate for HardPFReq accesses
system.l2cache.HardPFReq_avg_mshr_miss_latency::.l2cache.prefetcher 72598.500000                       # average HardPFReq mshr miss latency
system.l2cache.HardPFReq_avg_mshr_miss_latency::total 72598.500000                       # average HardPFReq mshr miss latency
system.l2cache.ReadExReq_hits::.cpu.data            2                       # number of ReadExReq hits
system.l2cache.ReadExReq_hits::total                2                       # number of ReadExReq hits
system.l2cache.ReadExReq_misses::.cpu.data            6                       # number of ReadExReq misses
system.l2cache.ReadExReq_misses::total              6                       # number of ReadExReq misses
system.l2cache.ReadExReq_miss_latency::.cpu.data       423600                       # number of ReadExReq miss cycles
system.l2cache.ReadExReq_miss_latency::total       423600                       # number of ReadExReq miss cycles
system.l2cache.ReadExReq_accesses::.cpu.data            8                       # number of ReadExReq accesses(hits+misses)
system.l2cache.ReadExReq_accesses::total            8                       # number of ReadExReq accesses(hits+misses)
system.l2cache.ReadExReq_miss_rate::.cpu.data     0.750000                       # miss rate for ReadExReq accesses
system.l2cache.ReadExReq_miss_rate::total     0.750000                       # miss rate for ReadExReq accesses
system.l2cache.ReadExReq_avg_miss_latency::.cpu.data        70600                       # average ReadExReq miss latency
system.l2cache.ReadExReq_avg_miss_latency::total        70600                       # average ReadExReq miss latency
system.l2cache.ReadExReq_mshr_misses::.cpu.data            6                       # number of ReadExReq MSHR misses
system.l2cache.ReadExReq_mshr_misses::total            6                       # number of ReadExReq MSHR misses
system.l2cache.ReadExReq_mshr_miss_latency::.cpu.data       375600                       # number of ReadExReq MSHR miss cycles
system.l2cache.ReadExReq_mshr_miss_latency::total       375600                       # number of ReadExReq MSHR miss cycles
system.l2cache.ReadExReq_mshr_miss_rate::.cpu.data     0.750000                       # mshr miss rate for ReadExReq accesses
system.l2cache.ReadExReq_mshr_miss_rate::total     0.750000                       # mshr miss rate for ReadExReq accesses
system.l2cache.ReadExReq_avg_mshr_miss_latency::.cpu.data        62600                       # average ReadExReq mshr miss latency
system.l2cache.ReadExReq_avg_mshr_miss_latency::total        62600                       # average ReadExReq mshr miss latency
system.l2cache.ReadSharedReq_hits::.cpu.inst          173                       # number of ReadSharedReq hits
system.l2cache.ReadSharedReq_hits::.cpu.data           74                       # number of ReadSharedReq hits
system.l2cache.ReadSharedReq_hits::.cpu.dcache.prefetcher           10                       # number of ReadSharedReq hits
system.l2cache.ReadSharedReq_hits::total          257                       # number of ReadSharedReq hits
system.l2cache.ReadSharedReq_misses::.cpu.inst          152                       # number of ReadSharedReq misses
system.l2cache.ReadSharedReq_misses::.cpu.data           67                       # number of ReadSharedReq misses
system.l2cache.ReadSharedReq_misses::.cpu.dcache.prefetcher           29                       # number of ReadSharedReq misses
system.l2cache.ReadSharedReq_misses::total          248                       # number of ReadSharedReq misses
system.l2cache.ReadSharedReq_miss_latency::.cpu.inst     10434800                       # number of ReadSharedReq miss cycles
system.l2cache.ReadSharedReq_miss_latency::.cpu.data      4407600                       # number of ReadSharedReq miss cycles
system.l2cache.ReadSharedReq_miss_latency::.cpu.dcache.prefetcher      2050774                       # number of ReadSharedReq miss cycles
system.l2cache.ReadSharedReq_miss_latency::total     16893174                       # number of ReadSharedReq miss cycles
system.l2cache.ReadSharedReq_accesses::.cpu.inst          325                       # number of ReadSharedReq accesses(hits+misses)
system.l2cache.ReadSharedReq_accesses::.cpu.data          141                       # number of ReadSharedReq accesses(hits+misses)
system.l2cache.ReadSharedReq_accesses::.cpu.dcache.prefetcher           39                       # number of ReadSharedReq accesses(hits+misses)
system.l2cache.ReadSharedReq_accesses::total          505                       # number of ReadSharedReq accesses(hits+misses)
system.l2cache.ReadSharedReq_miss_rate::.cpu.inst     0.467692                       # miss rate for ReadSharedReq accesses
system.l2cache.ReadSharedReq_miss_rate::.cpu.data     0.475177                       # miss rate for ReadSharedReq accesses
system.l2cache.ReadSharedReq_miss_rate::.cpu.dcache.prefetcher     0.743590                       # miss rate for ReadSharedReq accesses
system.l2cache.ReadSharedReq_miss_rate::total     0.491089                       # miss rate for ReadSharedReq accesses
system.l2cache.ReadSharedReq_avg_miss_latency::.cpu.inst        68650                       # average ReadSharedReq miss latency
system.l2cache.ReadSharedReq_avg_miss_latency::.cpu.data 65785.074627                       # average ReadSharedReq miss latency
system.l2cache.ReadSharedReq_avg_miss_latency::.cpu.dcache.prefetcher 70716.344828                       # average ReadSharedReq miss latency
system.l2cache.ReadSharedReq_avg_miss_latency::total 68117.637097                       # average ReadSharedReq miss latency
system.l2cache.ReadSharedReq_mshr_hits::.cpu.dcache.prefetcher            1                       # number of ReadSharedReq MSHR hits
system.l2cache.ReadSharedReq_mshr_hits::total            1                       # number of ReadSharedReq MSHR hits
system.l2cache.ReadSharedReq_mshr_misses::.cpu.inst          152                       # number of ReadSharedReq MSHR misses
system.l2cache.ReadSharedReq_mshr_misses::.cpu.data           67                       # number of ReadSharedReq MSHR misses
system.l2cache.ReadSharedReq_mshr_misses::.cpu.dcache.prefetcher           28                       # number of ReadSharedReq MSHR misses
system.l2cache.ReadSharedReq_mshr_misses::total          247                       # number of ReadSharedReq MSHR misses
system.l2cache.ReadSharedReq_mshr_miss_latency::.cpu.inst      9226800                       # number of ReadSharedReq MSHR miss cycles
system.l2cache.ReadSharedReq_mshr_miss_latency::.cpu.data      3871600                       # number of ReadSharedReq MSHR miss cycles
system.l2cache.ReadSharedReq_mshr_miss_latency::.cpu.dcache.prefetcher      1799975                       # number of ReadSharedReq MSHR miss cycles
system.l2cache.ReadSharedReq_mshr_miss_latency::total     14898375                       # number of ReadSharedReq MSHR miss cycles
system.l2cache.ReadSharedReq_mshr_miss_rate::.cpu.inst     0.467692                       # mshr miss rate for ReadSharedReq accesses
system.l2cache.ReadSharedReq_mshr_miss_rate::.cpu.data     0.475177                       # mshr miss rate for ReadSharedReq accesses
system.l2cache.ReadSharedReq_mshr_miss_rate::.cpu.dcache.prefetcher     0.717949                       # mshr miss rate for ReadSharedReq accesses
system.l2cache.ReadSharedReq_mshr_miss_rate::total     0.489109                       # mshr miss rate for ReadSharedReq accesses
system.l2cache.ReadSharedReq_avg_mshr_miss_latency::.cpu.inst 60702.631579                       # average ReadSharedReq mshr miss latency
system.l2cache.ReadSharedReq_avg_mshr_miss_latency::.cpu.data 57785.074627                       # average ReadSharedReq mshr miss latency
system.l2cache.ReadSharedReq_avg_mshr_miss_latency::.cpu.dcache.prefetcher 64284.821429                       # average ReadSharedReq mshr miss latency
system.l2cache.ReadSharedReq_avg_mshr_miss_latency::total 60317.307692                       # average ReadSharedReq mshr miss latency
system.l2cache.prefetcher.pwrStateResidencyTicks::UNDEFINED    117417600                       # Cumulative time (in ticks) in various power states
system.l2cache.tags.pwrStateResidencyTicks::UNDEFINED    117417600                       # Cumulative time (in ticks) in various power states
system.l2cache.tags.tagsinuse                    4096                       # Cycle average of tags in use
system.l2cache.tags.total_refs                  13568                       # Total number of references to valid blocks.
system.l2cache.tags.sampled_refs                 4357                       # Sample count of references to valid blocks.
system.l2cache.tags.avg_refs                 3.114069                       # Average number of references to valid blocks.
system.l2cache.tags.warmup_cycle                    0                       # Cycle when the warmup percentage was hit.
system.l2cache.tags.occ_blocks::.writebacks    32.767309                       # Average occupied blocks per requestor
system.l2cache.tags.occ_blocks::.cpu.inst  1122.012987                       # Average occupied blocks per requestor
system.l2cache.tags.occ_blocks::.cpu.data  1812.804295                       # Average occupied blocks per requestor
system.l2cache.tags.occ_blocks::.cpu.dcache.prefetcher  1043.531467                       # Average occupied blocks per requestor
system.l2cache.tags.occ_blocks::.l2cache.prefetcher    84.883942                       # Average occupied blocks per requestor
system.l2cache.tags.occ_percent::.writebacks     0.008000                       # Average percentage of cache occupancy
system.l2cache.tags.occ_percent::.cpu.inst     0.273929                       # Average percentage of cache occupancy
system.l2cache.tags.occ_percent::.cpu.data     0.442579                       # Average percentage of cache occupancy
system.l2cache.tags.occ_percent::.cpu.dcache.prefetcher     0.254768                       # Average percentage of cache occupancy
system.l2cache.tags.occ_percent::.l2cache.prefetcher     0.020724                       # Average percentage of cache occupancy
system.l2cache.tags.occ_percent::total              1                       # Average percentage of cache occupancy
system.l2cache.tags.occ_task_id_blocks::1022         1080                       # Occupied blocks per task id
system.l2cache.tags.occ_task_id_blocks::1024         3016                       # Occupied blocks per task id
system.l2cache.tags.age_task_id_blocks_1022::0           18                       # Occupied blocks per task id
system.l2cache.tags.age_task_id_blocks_1022::1            6                       # Occupied blocks per task id
system.l2cache.tags.age_task_id_blocks_1022::2         1036                       # Occupied blocks per task id
system.l2cache.tags.age_task_id_blocks_1022::3           20                       # Occupied blocks per task id
system.l2cache.tags.age_task_id_blocks_1024::0          163                       # Occupied blocks per task id
system.l2cache.tags.age_task_id_blocks_1024::1           33                       # Occupied blocks per task id
system.l2cache.tags.age_task_id_blocks_1024::2         2624                       # Occupied blocks per task id
system.l2cache.tags.age_task_id_blocks_1024::3          196                       # Occupied blocks per task id
system.l2cache.tags.occ_task_id_percent::1022     0.263672                       # Percentage of cache occupancy per task id
system.l2cache.tags.occ_task_id_percent::1024     0.736328                       # Percentage of cache occupancy per task id
system.l2cache.tags.tag_accesses                 8461                       # Number of tag accesses
system.l2cache.tags.data_accesses                8461                       # Number of data accesses
system.mem_ctrl.pwrStateResidencyTicks::UNDEFINED    117417600                       # Cumulative time (in ticks) in various power states
system.mem_ctrl.bytes_read::.cpu.inst            9664                       # Number of bytes read from this memory
system.mem_ctrl.bytes_read::.cpu.data            4672                       # Number of bytes read from this memory
system.mem_ctrl.bytes_read::.cpu.dcache.prefetcher         1792                       # Number of bytes read from this memory
system.mem_ctrl.bytes_read::.l2cache.prefetcher          128                       # Number of bytes read from this memory
system.mem_ctrl.bytes_read::total               16256                       # Number of bytes read from this memory
system.mem_ctrl.bytes_inst_read::.cpu.inst         9664                       # Number of instructions bytes read from this memory
system.mem_ctrl.bytes_inst_read::total           9664                       # Number of instructions bytes read from this memory
system.mem_ctrl.bytes_written::.writebacks          768                       # Number of bytes written to this memory
system.mem_ctrl.bytes_written::total              768                       # Number of bytes written to this memory
system.mem_ctrl.num_reads::.cpu.inst              151                       # Number of read requests responded to by this memory
system.mem_ctrl.num_reads::.cpu.data               73                       # Number of read requests responded to by this memory
system.mem_ctrl.num_reads::.cpu.dcache.prefetcher           28                       # Number of read requests responded to by this memory
system.mem_ctrl.num_reads::.l2cache.prefetcher            2                       # Number of read requests responded to by this memory
system.mem_ctrl.num_reads::total                  254                       # Number of read requests responded to by this memory
system.mem_ctrl.num_writes::.writebacks            12                       # Number of write requests responded to by this memory
system.mem_ctrl.num_writes::total                  12                       # Number of write requests responded to by this memory
system.mem_ctrl.bw_read::.cpu.inst           82304527                       # Total read bandwidth from this memory (bytes/s)
system.mem_ctrl.bw_read::.cpu.data           39789606                       # Total read bandwidth from this memory (bytes/s)
system.mem_ctrl.bw_read::.cpu.dcache.prefetcher     15261767                       # Total read bandwidth from this memory (bytes/s)
system.mem_ctrl.bw_read::.l2cache.prefetcher      1090126                       # Total read bandwidth from this memory (bytes/s)
system.mem_ctrl.bw_read::total              138446025                       # Total read bandwidth from this memory (bytes/s)
system.mem_ctrl.bw_inst_read::.cpu.inst      82304527                       # Instruction read bandwidth from this memory (bytes/s)
system.mem_ctrl.bw_inst_read::total          82304527                       # Instruction read bandwidth from this memory (bytes/s)
system.mem_ctrl.bw_write::.writebacks         6540757                       # Write bandwidth from this memory (bytes/s)
system.mem_ctrl.bw_write::total               6540757                       # Write bandwidth from this memory (bytes/s)
system.mem_ctrl.bw_total::.writebacks         6540757                       # Total bandwidth to/from this memory (bytes/s)
system.mem_ctrl.bw_total::.cpu.inst          82304527                       # Total bandwidth to/from this memory (bytes/s)
system.mem_ctrl.bw_total::.cpu.data          39789606                       # Total bandwidth to/from this memory (bytes/s)
system.mem_ctrl.bw_total::.cpu.dcache.prefetcher     15261767                       # Total bandwidth to/from this memory (bytes/s)
system.mem_ctrl.bw_total::.l2cache.prefetcher      1090126                       # Total bandwidth to/from this memory (bytes/s)
system.mem_ctrl.bw_total::total             144986782                       # Total bandwidth to/from this memory (bytes/s)

---------- End Simulation Statistics   ----------
