
---------- Begin Simulation Statistics ----------
final_tick                                 1122580000                       # Number of ticks from beginning of simulation (restored from checkpoints and never reset)
host_inst_rate                                 186145                       # Simulator instruction rate (inst/s)
host_mem_usage                                4406860                       # Number of bytes of host memory used
host_op_rate                                   326905                       # Simulator op (including micro ops) rate (op/s)
host_seconds                                    11.61                       # Real time elapsed on the host
host_tick_rate                               96728578                       # Simulator tick rate (ticks/s)
sim_freq                                 1000000000000                       # Frequency of simulated ticks
sim_insts                                     2160288                       # Number of instructions simulated
sim_ops                                       3793881                       # Number of ops (including micro ops) simulated
sim_seconds                                  0.001123                       # Number of seconds simulated
sim_ticks                                  1122580000                       # Number of ticks simulated
system.cpu.branchPred.BTBCorrect                    0                       # Number of correct BTB predictions (this stat may not work properly.
system.cpu.branchPred.BTBHitPct              0.000000                       # BTB Hit Percentage
system.cpu.branchPred.BTBHits                       0                       # Number of BTB hits
system.cpu.branchPred.BTBLookups               452671                       # Number of BTB lookups
system.cpu.branchPred.RASInCorrect                 10                       # Number of incorrect RAS predictions.
system.cpu.branchPred.condIncorrect             24439                       # Number of conditional branches incorrect
system.cpu.branchPred.condPredicted            477569                       # Number of conditional branches predicted
system.cpu.branchPred.indirectHits             245741                       # Number of indirect target hits.
system.cpu.branchPred.indirectLookups          452671                       # Number of indirect predictor lookups.
system.cpu.branchPred.indirectMisses           206930                       # Number of indirect misses.
system.cpu.branchPred.lookups                  506833                       # Number of BP lookups
system.cpu.branchPred.usedRAS                   12875                       # Number of times the RAS was used to get a target.
system.cpu.branchPredindirectMispredicted        12280                       # Number of mispredicted indirect branches.
system.cpu.cc_regfile_reads                   2475467                       # number of cc regfile reads
system.cpu.cc_regfile_writes                  1986897                       # number of cc regfile writes
system.cpu.commit.amos                              0                       # Number of atomic instructions committed
system.cpu.commit.branchMispredicts             24553                       # The number of times a branch was mispredicted
system.cpu.commit.branches                     363182                       # Number of branches committed
system.cpu.commit.bw_lim_events                632465                       # number cycles where commit BW limit reached
system.cpu.commit.commitNonSpecStalls             760                       # The number of times commit has been forced to stall to communicate backwards
system.cpu.commit.commitSquashedInsts          886899                       # The number of squashed insts skipped by commit
system.cpu.commit.committedInsts              2160288                       # Number of instructions committed
system.cpu.commit.committedOps                3793881                       # Number of ops (including micro ops) committed
system.cpu.commit.committed_per_cycle::samples      2402375                       # Number of insts commited each cycle
system.cpu.commit.committed_per_cycle::mean     1.579221                       # Number of insts commited each cycle
system.cpu.commit.committed_per_cycle::stdev     1.729204                       # Number of insts commited each cycle
system.cpu.commit.committed_per_cycle::underflows            0      0.00%      0.00% # Number of insts commited each cycle
system.cpu.commit.committed_per_cycle::0      1163508     48.43%     48.43% # Number of insts commited each cycle
system.cpu.commit.committed_per_cycle::1       186847      7.78%     56.21% # Number of insts commited each cycle
system.cpu.commit.committed_per_cycle::2       181491      7.55%     63.76% # Number of insts commited each cycle
system.cpu.commit.committed_per_cycle::3       238064      9.91%     73.67% # Number of insts commited each cycle
system.cpu.commit.committed_per_cycle::4       632465     26.33%    100.00% # Number of insts commited each cycle
system.cpu.commit.committed_per_cycle::overflows            0      0.00%    100.00% # Number of insts commited each cycle
system.cpu.commit.committed_per_cycle::min_value            0                       # Number of insts commited each cycle
system.cpu.commit.committed_per_cycle::max_value            4                       # Number of insts commited each cycle
system.cpu.commit.committed_per_cycle::total      2402375                       # Number of insts commited each cycle
system.cpu.commit.fp_insts                      87289                       # Number of committed floating point instructions.
system.cpu.commit.function_calls                11003                       # Number of function calls committed.
system.cpu.commit.int_insts                   3728154                       # Number of committed integer instructions.
system.cpu.commit.loads                        517671                       # Number of loads committed
system.cpu.commit.membars                           1                       # Number of memory barriers committed
system.cpu.commit.op_class_0::No_OpClass        21591      0.57%      0.57% # Class of committed instruction
system.cpu.commit.op_class_0::IntAlu          2971585     78.33%     78.89% # Class of committed instruction
system.cpu.commit.op_class_0::IntMult            1861      0.05%     78.94% # Class of committed instruction
system.cpu.commit.op_class_0::IntDiv            38160      1.01%     79.95% # Class of committed instruction
system.cpu.commit.op_class_0::FloatAdd           3412      0.09%     80.04% # Class of committed instruction
system.cpu.commit.op_class_0::FloatCmp              0      0.00%     80.04% # Class of committed instruction
system.cpu.commit.op_class_0::FloatCvt           1248      0.03%     80.07% # Class of committed instruction
system.cpu.commit.op_class_0::FloatMult             0      0.00%     80.07% # Class of committed instruction
system.cpu.commit.op_class_0::FloatMultAcc            0      0.00%     80.07% # Class of committed instruction
system.cpu.commit.op_class_0::FloatDiv              0      0.00%     80.07% # Class of committed instruction
system.cpu.commit.op_class_0::FloatMisc             0      0.00%     80.07% # Class of committed instruction
system.cpu.commit.op_class_0::FloatSqrt             0      0.00%     80.07% # Class of committed instruction
system.cpu.commit.op_class_0::SimdAdd            6274      0.17%     80.24% # Class of committed instruction
system.cpu.commit.op_class_0::SimdAddAcc            0      0.00%     80.24% # Class of committed instruction
system.cpu.commit.op_class_0::SimdAlu           13393      0.35%     80.59% # Class of committed instruction
system.cpu.commit.op_class_0::SimdCmp               0      0.00%     80.59% # Class of committed instruction
system.cpu.commit.op_class_0::SimdCvt           14310      0.38%     80.97% # Class of committed instruction
system.cpu.commit.op_class_0::SimdMisc          11271      0.30%     81.27% # Class of committed instruction
system.cpu.commit.op_class_0::SimdMult              0      0.00%     81.27% # Class of committed instruction
system.cpu.commit.op_class_0::SimdMultAcc            0      0.00%     81.27% # Class of committed instruction
system.cpu.commit.op_class_0::SimdShift          1242      0.03%     81.30% # Class of committed instruction
system.cpu.commit.op_class_0::SimdShiftAcc            0      0.00%     81.30% # Class of committed instruction
system.cpu.commit.op_class_0::SimdDiv               0      0.00%     81.30% # Class of committed instruction
system.cpu.commit.op_class_0::SimdSqrt              0      0.00%     81.30% # Class of committed instruction
system.cpu.commit.op_class_0::SimdFloatAdd            0      0.00%     81.30% # Class of committed instruction
system.cpu.commit.op_class_0::SimdFloatAlu            0      0.00%     81.30% # Class of committed instruction
system.cpu.commit.op_class_0::SimdFloatCmp            0      0.00%     81.30% # Class of committed instruction
system.cpu.commit.op_class_0::SimdFloatCvt            0      0.00%     81.30% # Class of committed instruction
system.cpu.commit.op_class_0::SimdFloatDiv            0      0.00%     81.30% # Class of committed instruction
system.cpu.commit.op_class_0::SimdFloatMisc            0      0.00%     81.30% # Class of committed instruction
system.cpu.commit.op_class_0::SimdFloatMult            0      0.00%     81.30% # Class of committed instruction
system.cpu.commit.op_class_0::SimdFloatMultAcc            0      0.00%     81.30% # Class of committed instruction
system.cpu.commit.op_class_0::SimdFloatSqrt            0      0.00%     81.30% # Class of committed instruction
system.cpu.commit.op_class_0::SimdReduceAdd            0      0.00%     81.30% # Class of committed instruction
system.cpu.commit.op_class_0::SimdReduceAlu            0      0.00%     81.30% # Class of committed instruction
system.cpu.commit.op_class_0::SimdReduceCmp            0      0.00%     81.30% # Class of committed instruction
system.cpu.commit.op_class_0::SimdFloatReduceAdd            0      0.00%     81.30% # Class of committed instruction
system.cpu.commit.op_class_0::SimdFloatReduceCmp            0      0.00%     81.30% # Class of committed instruction
system.cpu.commit.op_class_0::SimdAes               0      0.00%     81.30% # Class of committed instruction
system.cpu.commit.op_class_0::SimdAesMix            0      0.00%     81.30% # Class of committed instruction
system.cpu.commit.op_class_0::SimdSha1Hash            0      0.00%     81.30% # Class of committed instruction
system.cpu.commit.op_class_0::SimdSha1Hash2            0      0.00%     81.30% # Class of committed instruction
system.cpu.commit.op_class_0::SimdSha256Hash            0      0.00%     81.30% # Class of committed instruction
system.cpu.commit.op_class_0::SimdSha256Hash2            0      0.00%     81.30% # Class of committed instruction
system.cpu.commit.op_class_0::SimdShaSigma2            0      0.00%     81.30% # Class of committed instruction
system.cpu.commit.op_class_0::SimdShaSigma3            0      0.00%     81.30% # Class of committed instruction
system.cpu.commit.op_class_0::SimdPredAlu            0      0.00%     81.30% # Class of committed instruction
system.cpu.commit.op_class_0::MemRead          496741     13.09%     94.39% # Class of committed instruction
system.cpu.commit.op_class_0::MemWrite         179084      4.72%     99.11% # Class of committed instruction
system.cpu.commit.op_class_0::FloatMemRead        20930      0.55%     99.66% # Class of committed instruction
system.cpu.commit.op_class_0::FloatMemWrite        12779      0.34%    100.00% # Class of committed instruction
system.cpu.commit.op_class_0::IprAccess             0      0.00%    100.00% # Class of committed instruction
system.cpu.commit.op_class_0::InstPrefetch            0      0.00%    100.00% # Class of committed instruction
system.cpu.commit.op_class_0::total           3793881                       # Class of committed instruction
system.cpu.commit.refs                         709534                       # Number of memory references committed
system.cpu.commit.swp_count                         0                       # Number of s/w prefetches committed
system.cpu.commit.vec_insts                         0                       # Number of committed Vector instructions.
system.cpu.committedInsts                     2160288                       # Number of Instructions Simulated
system.cpu.committedOps                       3793881                       # Number of Ops (including micro ops) Simulated
system.cpu.cpi                               1.299110                       # CPI: Cycles Per Instruction
system.cpu.cpi_total                         1.299110                       # CPI: Total CPI of All Threads
system.cpu.dcache.prefetcher.num_hwpf_issued         8239                       # number of hwpf issued
system.cpu.dcache.prefetcher.pfBufferHit        34597                       # number of redundant prefetches already in prefetch queue
system.cpu.dcache.prefetcher.pfIdentified        50370                       # number of prefetch candidates identified
system.cpu.dcache.prefetcher.pfInCache              0                       # number of redundant prefetches already in cache/mshr dropped
system.cpu.dcache.prefetcher.pfRemovedFull            0                       # number of prefetches dropped due to prefetch queue size
system.cpu.dcache.prefetcher.pfSpanPage          4530                       # number of prefetches that crossed the page
system.cpu.decode.BlockedCycles               1026268                       # Number of cycles decode is blocked
system.cpu.decode.DecodedInsts                4898519                       # Number of instructions handled by decode
system.cpu.decode.IdleCycles                   309337                       # Number of cycles decode is idle
system.cpu.decode.RunCycles                   1193917                       # Number of cycles decode is running
system.cpu.decode.SquashCycles                  24617                       # Number of cycles decode is squashing
system.cpu.decode.UnblockCycles                 89788                       # Number of cycles decode is unblocking
system.cpu.dtb.rdAccesses                      600989                       # TLB accesses on read requests
system.cpu.dtb.rdMisses                          1991                       # TLB misses on read requests
system.cpu.dtb.wrAccesses                      211526                       # TLB accesses on write requests
system.cpu.dtb.wrMisses                           165                       # TLB misses on write requests
system.cpu.fetch.Branches                      506833                       # Number of branches that fetch encountered
system.cpu.fetch.CacheLines                    251997                       # Number of cache lines fetched
system.cpu.fetch.Cycles                       2275454                       # Number of cycles fetch has run and was not squashing or blocked
system.cpu.fetch.IcacheSquashes                  4700                       # Number of outstanding Icache misses that were squashed
system.cpu.fetch.Insts                        2930675                       # Number of instructions fetch has processed
system.cpu.fetch.MiscStallCycles                  158                       # Number of cycles fetch has spent waiting on interrupts, or bad addresses, or out of MSHRs
system.cpu.fetch.PendingQuiesceStallCycles            8                       # Number of stall cycles due to pending quiesce instructions
system.cpu.fetch.PendingTrapStallCycles           766                       # Number of stall cycles due to pending traps
system.cpu.fetch.SquashCycles                   49234                       # Number of cycles fetch has spent squashing
system.cpu.fetch.branchRate                  0.180596                       # Number of branch fetches per cycle
system.cpu.fetch.icacheStallCycles             342924                       # Number of cycles fetch is stalled on an Icache miss
system.cpu.fetch.predictedBranches             258616                       # Number of branches that fetch has predicted taken
system.cpu.fetch.rate                        1.044264                       # Number of inst fetches per cycle
system.cpu.fetch.rateDist::samples            2643927                       # Number of instructions fetched each cycle (Total)
system.cpu.fetch.rateDist::mean              1.957708                       # Number of instructions fetched each cycle (Total)
system.cpu.fetch.rateDist::stdev             1.930628                       # Number of instructions fetched each cycle (Total)
system.cpu.fetch.rateDist::underflows               0      0.00%      0.00% # Number of instructions fetched each cycle (Total)
system.cpu.fetch.rateDist::0                  1241384     46.95%     46.95% # Number of instructions fetched each cycle (Total)
system.cpu.fetch.rateDist::1                    77241      2.92%     49.87% # Number of instructions fetched each cycle (Total)
system.cpu.fetch.rateDist::2                    61375      2.32%     52.20% # Number of instructions fetched each cycle (Total)
system.cpu.fetch.rateDist::3                    79662      3.01%     55.21% # Number of instructions fetched each cycle (Total)
system.cpu.fetch.rateDist::4                  1184265     44.79%    100.00% # Number of instructions fetched each cycle (Total)
system.cpu.fetch.rateDist::overflows                0      0.00%    100.00% # Number of instructions fetched each cycle (Total)
system.cpu.fetch.rateDist::min_value                0                       # Number of instructions fetched each cycle (Total)
system.cpu.fetch.rateDist::max_value                4                       # Number of instructions fetched each cycle (Total)
system.cpu.fetch.rateDist::total              2643927                       # Number of instructions fetched each cycle (Total)
system.cpu.fp_regfile_reads                    143502                       # number of floating regfile reads
system.cpu.fp_regfile_writes                    78454                       # number of floating regfile writes
system.cpu.fuPool.fu_ticks_busy::IntALU(0)    226622800                       # Total ticks fu was busy
system.cpu.fuPool.fu_ticks_busy::IntALU(1)    226622800                       # Total ticks fu was busy
system.cpu.fuPool.fu_ticks_busy::IntALU(2)    226622400                       # Total ticks fu was busy
system.cpu.fuPool.fu_ticks_busy::IntALU(3)    226622400                       # Total ticks fu was busy
system.cpu.fuPool.fu_ticks_busy::IntALU(4)    226622400                       # Total ticks fu was busy
system.cpu.fuPool.fu_ticks_busy::IntALU(5)    226622400                       # Total ticks fu was busy
system.cpu.fuPool.fu_ticks_busy::IntMultDiv(0)      8837200                       # Total ticks fu was busy
system.cpu.fuPool.fu_ticks_busy::IntMultDiv(1)      8837200                       # Total ticks fu was busy
system.cpu.fuPool.fu_ticks_busy::FP_ALU(0)       630800                       # Total ticks fu was busy
system.cpu.fuPool.fu_ticks_busy::FP_ALU(1)       630800                       # Total ticks fu was busy
system.cpu.fuPool.fu_ticks_busy::FP_ALU(2)       630400                       # Total ticks fu was busy
system.cpu.fuPool.fu_ticks_busy::FP_ALU(3)       630000                       # Total ticks fu was busy
system.cpu.fuPool.fu_ticks_busy::FP_MultDiv(0)            0                       # Total ticks fu was busy
system.cpu.fuPool.fu_ticks_busy::FP_MultDiv(1)            0                       # Total ticks fu was busy
system.cpu.fuPool.fu_ticks_busy::SIMD_Unit(0)      5256800                       # Total ticks fu was busy
system.cpu.fuPool.fu_ticks_busy::SIMD_Unit(1)      5429200                       # Total ticks fu was busy
system.cpu.fuPool.fu_ticks_busy::SIMD_Unit(2)      5621600                       # Total ticks fu was busy
system.cpu.fuPool.fu_ticks_busy::SIMD_Unit(3)      5441200                       # Total ticks fu was busy
system.cpu.fuPool.fu_ticks_busy::PredALU(0)            0                       # Total ticks fu was busy
system.cpu.fuPool.fu_ticks_busy::RdWrPort(0)     82678000                       # Total ticks fu was busy
system.cpu.fuPool.fu_ticks_busy::RdWrPort(1)     82661200                       # Total ticks fu was busy
system.cpu.fuPool.fu_ticks_busy::RdWrPort(2)     82702000                       # Total ticks fu was busy
system.cpu.fuPool.fu_ticks_busy::RdWrPort(3)     82584800                       # Total ticks fu was busy
system.cpu.fuPool.fu_ticks_busy::IprPort(0)            0                       # Total ticks fu was busy
system.cpu.fuPool.fu_ticks_busy::total     1732306400                       # Total ticks fu was busy
system.cpu.icache.prefetcher.num_hwpf_issued            0                       # number of hwpf issued
system.cpu.icache.prefetcher.pfBufferHit            0                       # number of redundant prefetches already in prefetch queue
system.cpu.icache.prefetcher.pfIdentified            0                       # number of prefetch candidates identified
system.cpu.icache.prefetcher.pfInCache              0                       # number of redundant prefetches already in cache/mshr dropped
system.cpu.icache.prefetcher.pfRemovedFull            0                       # number of prefetches dropped due to prefetch queue size
system.cpu.icache.prefetcher.pfSpanPage             0                       # number of prefetches that crossed the page
system.cpu.idleCycles                          162524                       # Total number of cycles that the CPU has spent unscheduled due to idling
system.cpu.iew.branchMispredicts                29050                       # Number of branch mispredicts detected at execute
system.cpu.iew.exec_branches                   393134                       # Number of branches executed
system.cpu.iew.exec_nop                             0                       # number of nop insts executed
system.cpu.iew.exec_rate                     1.540648                       # Inst execution rate
system.cpu.iew.exec_refs                       813591                       # number of memory reference insts executed
system.cpu.iew.exec_stores                     211514                       # Number of stores executed
system.cpu.iew.exec_swp                             0                       # number of swp insts executed
system.cpu.iew.iewBlockCycles                  693995                       # Number of cycles IEW is blocking
system.cpu.iew.iewDispLoadInsts                632726                       # Number of dispatched load instructions
system.cpu.iew.iewDispNonSpecInsts                957                       # Number of dispatched non-speculative instructions
system.cpu.iew.iewDispSquashedInsts               550                       # Number of squashed instructions skipped by dispatch
system.cpu.iew.iewDispStoreInsts               221839                       # Number of dispatched store instructions
system.cpu.iew.iewDispatchedInsts             4680736                       # Number of instructions dispatched to IQ
system.cpu.iew.iewExecLoadInsts                602077                       # Number of load instructions executed
system.cpu.iew.iewExecSquashedInsts             34765                       # Number of squashed instructions skipped in execute
system.cpu.iew.iewExecutedInsts               4323753                       # Number of executed instructions
system.cpu.iew.iewIQFullEvents                   3404                       # Number of times the IQ has become full, causing a stall
system.cpu.iew.iewIdleCycles                        0                       # Number of cycles IEW is idle
system.cpu.iew.iewLSQFullEvents                  8752                       # Number of times the LSQ has become full, causing a stall
system.cpu.iew.iewSquashCycles                  24617                       # Number of cycles IEW is squashing
system.cpu.iew.iewUnblockCycles                 15038                       # Number of cycles IEW is unblocking
system.cpu.iew.lsq.thread0.blockedLoads             0                       # Number of blocked loads due to partial load-store forwarding
system.cpu.iew.lsq.thread0.cacheBlocked           620                       # Number of times an access to memory failed due to the cache being blocked
system.cpu.iew.lsq.thread0.forwLoads            43123                       # Number of loads that had data forwarded from stores
system.cpu.iew.lsq.thread0.ignoredResponses          248                       # Number of memory responses ignored because the instruction is squashed
system.cpu.iew.lsq.thread0.invAddrLoads             0                       # Number of loads ignored due to an invalid address
system.cpu.iew.lsq.thread0.invAddrSwpfs             0                       # Number of software prefetches ignored due to an invalid address
system.cpu.iew.lsq.thread0.memOrderViolation           76                       # Number of memory ordering violations
system.cpu.iew.lsq.thread0.rescheduledLoads            3                       # Number of loads that were rescheduled
system.cpu.iew.lsq.thread0.squashedLoads       115053                       # Number of loads squashed
system.cpu.iew.lsq.thread0.squashedStores        29975                       # Number of stores squashed
system.cpu.iew.memOrderViolationEvents             76                       # Number of memory order violations
system.cpu.iew.predictedNotTakenIncorrect        20816                       # Number of branches that were predicted not taken incorrectly
system.cpu.iew.predictedTakenIncorrect           8234                       # Number of branches that were predicted taken incorrectly
system.cpu.iew.wb_consumers                   6018599                       # num instructions consuming a value
system.cpu.iew.wb_count                       4301583                       # cumulative count of insts written-back
system.cpu.iew.wb_fanout                     0.568044                       # average fanout of values written-back
system.cpu.iew.wb_producers                   3418827                       # num instructions producing a value
system.cpu.iew.wb_rate                       1.532748                       # insts written-back per cycle
system.cpu.iew.wb_sent                        4308588                       # cumulative count of insts sent to commit
system.cpu.int_regfile_reads                  6688028                       # number of integer regfile reads
system.cpu.int_regfile_writes                 3696130                       # number of integer regfile writes
system.cpu.ipc                               0.769758                       # IPC: Instructions Per Cycle
system.cpu.ipc_total                         0.769758                       # IPC: Total IPC of All Threads
system.cpu.iq.FU_type_0::No_OpClass             27752      0.64%      0.64% # Type of FU issued
system.cpu.iq.FU_type_0::IntAlu               3399340     77.99%     78.63% # Type of FU issued
system.cpu.iq.FU_type_0::IntMult                 1894      0.04%     78.67% # Type of FU issued
system.cpu.iq.FU_type_0::IntDiv                 42292      0.97%     79.64% # Type of FU issued
system.cpu.iq.FU_type_0::FloatAdd                5003      0.11%     79.76% # Type of FU issued
system.cpu.iq.FU_type_0::FloatCmp                   0      0.00%     79.76% # Type of FU issued
system.cpu.iq.FU_type_0::FloatCvt                1302      0.03%     79.79% # Type of FU issued
system.cpu.iq.FU_type_0::FloatMult                  0      0.00%     79.79% # Type of FU issued
system.cpu.iq.FU_type_0::FloatMultAcc               0      0.00%     79.79% # Type of FU issued
system.cpu.iq.FU_type_0::FloatDiv                   0      0.00%     79.79% # Type of FU issued
system.cpu.iq.FU_type_0::FloatMisc                  0      0.00%     79.79% # Type of FU issued
system.cpu.iq.FU_type_0::FloatSqrt                  0      0.00%     79.79% # Type of FU issued
system.cpu.iq.FU_type_0::SimdAdd                 6923      0.16%     79.95% # Type of FU issued
system.cpu.iq.FU_type_0::SimdAddAcc                 0      0.00%     79.95% # Type of FU issued
system.cpu.iq.FU_type_0::SimdAlu                17127      0.39%     80.34% # Type of FU issued
system.cpu.iq.FU_type_0::SimdCmp                    0      0.00%     80.34% # Type of FU issued
system.cpu.iq.FU_type_0::SimdCvt                16157      0.37%     80.71% # Type of FU issued
system.cpu.iq.FU_type_0::SimdMisc               11855      0.27%     80.98% # Type of FU issued
system.cpu.iq.FU_type_0::SimdMult                   0      0.00%     80.98% # Type of FU issued
system.cpu.iq.FU_type_0::SimdMultAcc                0      0.00%     80.98% # Type of FU issued
system.cpu.iq.FU_type_0::SimdShift               2310      0.05%     81.04% # Type of FU issued
system.cpu.iq.FU_type_0::SimdShiftAcc               0      0.00%     81.04% # Type of FU issued
system.cpu.iq.FU_type_0::SimdDiv                    0      0.00%     81.04% # Type of FU issued
system.cpu.iq.FU_type_0::SimdSqrt                   0      0.00%     81.04% # Type of FU issued
system.cpu.iq.FU_type_0::SimdFloatAdd               0      0.00%     81.04% # Type of FU issued
system.cpu.iq.FU_type_0::SimdFloatAlu               0      0.00%     81.04% # Type of FU issued
system.cpu.iq.FU_type_0::SimdFloatCmp               0      0.00%     81.04% # Type of FU issued
system.cpu.iq.FU_type_0::SimdFloatCvt               0      0.00%     81.04% # Type of FU issued
system.cpu.iq.FU_type_0::SimdFloatDiv               0      0.00%     81.04% # Type of FU issued
system.cpu.iq.FU_type_0::SimdFloatMisc              0      0.00%     81.04% # Type of FU issued
system.cpu.iq.FU_type_0::SimdFloatMult              0      0.00%     81.04% # Type of FU issued
system.cpu.iq.FU_type_0::SimdFloatMultAcc            0      0.00%     81.04% # Type of FU issued
system.cpu.iq.FU_type_0::SimdFloatSqrt              0      0.00%     81.04% # Type of FU issued
system.cpu.iq.FU_type_0::SimdReduceAdd              0      0.00%     81.04% # Type of FU issued
system.cpu.iq.FU_type_0::SimdReduceAlu              0      0.00%     81.04% # Type of FU issued
system.cpu.iq.FU_type_0::SimdReduceCmp              0      0.00%     81.04% # Type of FU issued
system.cpu.iq.FU_type_0::SimdFloatReduceAdd            0      0.00%     81.04% # Type of FU issued
system.cpu.iq.FU_type_0::SimdFloatReduceCmp            0      0.00%     81.04% # Type of FU issued
system.cpu.iq.FU_type_0::SimdAes                    0      0.00%     81.04% # Type of FU issued
system.cpu.iq.FU_type_0::SimdAesMix                 0      0.00%     81.04% # Type of FU issued
system.cpu.iq.FU_type_0::SimdSha1Hash               0      0.00%     81.04% # Type of FU issued
system.cpu.iq.FU_type_0::SimdSha1Hash2              0      0.00%     81.04% # Type of FU issued
system.cpu.iq.FU_type_0::SimdSha256Hash             0      0.00%     81.04% # Type of FU issued
system.cpu.iq.FU_type_0::SimdSha256Hash2            0      0.00%     81.04% # Type of FU issued
system.cpu.iq.FU_type_0::SimdShaSigma2              0      0.00%     81.04% # Type of FU issued
system.cpu.iq.FU_type_0::SimdShaSigma3              0      0.00%     81.04% # Type of FU issued
system.cpu.iq.FU_type_0::SimdPredAlu                0      0.00%     81.04% # Type of FU issued
system.cpu.iq.FU_type_0::MemRead               585236     13.43%     94.46% # Type of FU issued
system.cpu.iq.FU_type_0::MemWrite              200073      4.59%     99.05% # Type of FU issued
system.cpu.iq.FU_type_0::FloatMemRead           27147      0.62%     99.68% # Type of FU issued
system.cpu.iq.FU_type_0::FloatMemWrite          14111      0.32%    100.00% # Type of FU issued
system.cpu.iq.FU_type_0::IprAccess                  0      0.00%    100.00% # Type of FU issued
system.cpu.iq.FU_type_0::InstPrefetch               0      0.00%    100.00% # Type of FU issued
system.cpu.iq.FU_type_0::total                4358522                       # Type of FU issued
system.cpu.iq.fp_alu_accesses                  104533                       # Number of floating point alu accesses
system.cpu.iq.fp_inst_queue_reads              210395                       # Number of floating instruction queue reads
system.cpu.iq.fp_inst_queue_wakeup_accesses       101006                       # Number of floating instruction queue wakeup accesses
system.cpu.iq.fp_inst_queue_writes             148101                       # Number of floating instruction queue writes
system.cpu.iq.fu_busy_cnt                           0                       # FU busy when requested
system.cpu.iq.fu_busy_rate                          0                       # FU busy rate (busy events/executed inst)
system.cpu.iq.fu_full::No_OpClass                   0                       # attempts to use FU when none available
system.cpu.iq.fu_full::IntAlu                       0                       # attempts to use FU when none available
system.cpu.iq.fu_full::IntMult                      0                       # attempts to use FU when none available
system.cpu.iq.fu_full::IntDiv                       0                       # attempts to use FU when none available
system.cpu.iq.fu_full::FloatAdd                     0                       # attempts to use FU when none available
system.cpu.iq.fu_full::FloatCmp                     0                       # attempts to use FU when none available
system.cpu.iq.fu_full::FloatCvt                     0                       # attempts to use FU when none available
system.cpu.iq.fu_full::FloatMult                    0                       # attempts to use FU when none available
system.cpu.iq.fu_full::FloatMultAcc                 0                       # attempts to use FU when none available
system.cpu.iq.fu_full::FloatDiv                     0                       # attempts to use FU when none available
system.cpu.iq.fu_full::FloatMisc                    0                       # attempts to use FU when none available
system.cpu.iq.fu_full::FloatSqrt                    0                       # attempts to use FU when none available
system.cpu.iq.fu_full::SimdAdd                      0                       # attempts to use FU when none available
system.cpu.iq.fu_full::SimdAddAcc                   0                       # attempts to use FU when none available
system.cpu.iq.fu_full::SimdAlu                      0                       # attempts to use FU when none available
system.cpu.iq.fu_full::SimdCmp                      0                       # attempts to use FU when none available
system.cpu.iq.fu_full::SimdCvt                      0                       # attempts to use FU when none available
system.cpu.iq.fu_full::SimdMisc                     0                       # attempts to use FU when none available
system.cpu.iq.fu_full::SimdMult                     0                       # attempts to use FU when none available
system.cpu.iq.fu_full::SimdMultAcc                  0                       # attempts to use FU when none available
system.cpu.iq.fu_full::SimdShift                    0                       # attempts to use FU when none available
system.cpu.iq.fu_full::SimdShiftAcc                 0                       # attempts to use FU when none available
system.cpu.iq.fu_full::SimdDiv                      0                       # attempts to use FU when none available
system.cpu.iq.fu_full::SimdSqrt                     0                       # attempts to use FU when none available
system.cpu.iq.fu_full::SimdFloatAdd                 0                       # attempts to use FU when none available
system.cpu.iq.fu_full::SimdFloatAlu                 0                       # attempts to use FU when none available
system.cpu.iq.fu_full::SimdFloatCmp                 0                       # attempts to use FU when none available
system.cpu.iq.fu_full::SimdFloatCvt                 0                       # attempts to use FU when none available
system.cpu.iq.fu_full::SimdFloatDiv                 0                       # attempts to use FU when none available
system.cpu.iq.fu_full::SimdFloatMisc                0                       # attempts to use FU when none available
system.cpu.iq.fu_full::SimdFloatMult                0                       # attempts to use FU when none available
system.cpu.iq.fu_full::SimdFloatMultAcc             0                       # attempts to use FU when none available
system.cpu.iq.fu_full::SimdFloatSqrt                0                       # attempts to use FU when none available
system.cpu.iq.fu_full::SimdReduceAdd                0                       # attempts to use FU when none available
system.cpu.iq.fu_full::SimdReduceAlu                0                       # attempts to use FU when none available
system.cpu.iq.fu_full::SimdReduceCmp                0                       # attempts to use FU when none available
system.cpu.iq.fu_full::SimdFloatReduceAdd            0                       # attempts to use FU when none available
system.cpu.iq.fu_full::SimdFloatReduceCmp            0                       # attempts to use FU when none available
system.cpu.iq.fu_full::SimdAes                      0                       # attempts to use FU when none available
system.cpu.iq.fu_full::SimdAesMix                   0                       # attempts to use FU when none available
system.cpu.iq.fu_full::SimdSha1Hash                 0                       # attempts to use FU when none available
system.cpu.iq.fu_full::SimdSha1Hash2                0                       # attempts to use FU when none available
system.cpu.iq.fu_full::SimdSha256Hash               0                       # attempts to use FU when none available
system.cpu.iq.fu_full::SimdSha256Hash2              0                       # attempts to use FU when none available
system.cpu.iq.fu_full::SimdShaSigma2                0                       # attempts to use FU when none available
system.cpu.iq.fu_full::SimdShaSigma3                0                       # attempts to use FU when none available
system.cpu.iq.fu_full::SimdPredAlu                  0                       # attempts to use FU when none available
system.cpu.iq.fu_full::MemRead                      0                       # attempts to use FU when none available
system.cpu.iq.fu_full::MemWrite                     0                       # attempts to use FU when none available
system.cpu.iq.fu_full::FloatMemRead                 0                       # attempts to use FU when none available
system.cpu.iq.fu_full::FloatMemWrite                0                       # attempts to use FU when none available
system.cpu.iq.fu_full::IprAccess                    0                       # attempts to use FU when none available
system.cpu.iq.fu_full::InstPrefetch                 0                       # attempts to use FU when none available
system.cpu.iq.int_alu_accesses                4226237                       # Number of integer alu accesses
system.cpu.iq.int_inst_queue_reads           11168708                       # Number of integer instruction queue reads
system.cpu.iq.int_inst_queue_wakeup_accesses      4200577                       # Number of integer instruction queue wakeup accesses
system.cpu.iq.int_inst_queue_writes           5419554                       # Number of integer instruction queue writes
system.cpu.iq.iqInstsAdded                    4679599                       # Number of instructions added to the IQ (excludes non-spec)
system.cpu.iq.iqInstsIssued                   4358522                       # Number of instructions issued
system.cpu.iq.iqNonSpecInstsAdded                1137                       # Number of non-speculative instructions added to the IQ
system.cpu.iq.iqSquashedInstsExamined          886844                       # Number of squashed instructions iterated over during squash; mainly for profiling
system.cpu.iq.iqSquashedInstsIssued             18136                       # Number of squashed instructions issued
system.cpu.iq.iqSquashedNonSpecRemoved            377                       # Number of squashed non-spec instructions that were removed
system.cpu.iq.iqSquashedOperandsExamined      1325731                       # Number of squashed operands that are examined and possibly removed from graph
system.cpu.iq.issued_per_cycle::samples       2643927                       # Number of insts issued each cycle
system.cpu.iq.issued_per_cycle::mean         1.648503                       # Number of insts issued each cycle
system.cpu.iq.issued_per_cycle::stdev        1.670845                       # Number of insts issued each cycle
system.cpu.iq.issued_per_cycle::underflows            0      0.00%      0.00% # Number of insts issued each cycle
system.cpu.iq.issued_per_cycle::0             1173370     44.38%     44.38% # Number of insts issued each cycle
system.cpu.iq.issued_per_cycle::1              179462      6.79%     51.17% # Number of insts issued each cycle
system.cpu.iq.issued_per_cycle::2              313202     11.85%     63.01% # Number of insts issued each cycle
system.cpu.iq.issued_per_cycle::3              358916     13.58%     76.59% # Number of insts issued each cycle
system.cpu.iq.issued_per_cycle::4              618977     23.41%    100.00% # Number of insts issued each cycle
system.cpu.iq.issued_per_cycle::overflows            0      0.00%    100.00% # Number of insts issued each cycle
system.cpu.iq.issued_per_cycle::min_value            0                       # Number of insts issued each cycle
system.cpu.iq.issued_per_cycle::max_value            4                       # Number of insts issued each cycle
system.cpu.iq.issued_per_cycle::total         2643927                       # Number of insts issued each cycle
system.cpu.iq.rate                           1.553037                       # Inst issue rate
system.cpu.iq.vec_alu_accesses                      0                       # Number of vector alu accesses
system.cpu.iq.vec_inst_queue_reads                  0                       # Number of vector instruction queue reads
system.cpu.iq.vec_inst_queue_wakeup_accesses            0                       # Number of vector instruction queue wakeup accesses
system.cpu.iq.vec_inst_queue_writes                 0                       # Number of vector instruction queue writes
system.cpu.itb.rdAccesses                           0                       # TLB accesses on read requests
system.cpu.itb.rdMisses                             0                       # TLB misses on read requests
system.cpu.itb.wrAccesses                      252129                       # TLB accesses on write requests
system.cpu.itb.wrMisses                           386                       # TLB misses on write requests
system.cpu.memDep0.conflictingLoads              8634                       # Number of conflicting loads.
system.cpu.memDep0.conflictingStores             3814                       # Number of conflicting stores.
system.cpu.memDep0.insertedLoads               632726                       # Number of loads inserted to the mem dependence unit.
system.cpu.memDep0.insertedStores              221839                       # Number of stores inserted to the mem dependence unit.
system.cpu.misc_regfile_reads                 1636509                       # number of misc regfile reads
system.cpu.misc_regfile_writes                    702                       # number of misc regfile writes
system.cpu.numCycles                          2806451                       # number of cpu cycles simulated
system.cpu.numWorkItemsCompleted                    0                       # number of work items this cpu completed
system.cpu.numWorkItemsStarted                      0                       # number of work items this cpu started
system.cpu.process.numSyscalls                     57                       # Number of system calls
system.cpu.rename.BlockCycles                  841578                       # Number of cycles rename is blocking
system.cpu.rename.CommittedMaps               5139875                       # Number of HB maps that are committed
system.cpu.rename.FullRegisterEvents               54                       # Number of times there has been no free registers
system.cpu.rename.IQFullEvents                  47049                       # Number of times rename has blocked due to IQ full
system.cpu.rename.IdleCycles                   360223                       # Number of cycles rename is idle
system.cpu.rename.LQFullEvents                  15071                       # Number of times rename has blocked due to LQ full
system.cpu.rename.ROBFullEvents                  4968                       # Number of times rename has blocked due to ROB full
system.cpu.rename.RenameLookups              12587722                       # Number of register rename lookups that rename has made
system.cpu.rename.RenamedInsts                4822906                       # Number of instructions processed by rename
system.cpu.rename.RenamedOperands             6538449                       # Number of destination operands rename has renamed
system.cpu.rename.RunCycles                   1224212                       # Number of cycles rename is running
system.cpu.rename.SQFullEvents                  72748                       # Number of times rename has blocked due to SQ full
system.cpu.rename.SquashCycles                  24617                       # Number of cycles rename is squashing
system.cpu.rename.UnblockCycles                172790                       # Number of cycles rename is unblocking
system.cpu.rename.UndoneMaps                  1398548                       # Number of HB maps that are undone due to squashing
system.cpu.rename.fp_rename_lookups            181028                       # Number of floating rename lookups
system.cpu.rename.int_rename_lookups          7640409                       # Number of integer rename lookups
system.cpu.rename.serializeStallCycles          20507                       # count of cycles rename stalled for serializing inst
system.cpu.rename.serializingInsts                902                       # count of serializing insts renamed
system.cpu.rename.skidInsts                    209389                       # count of insts added to the skid buffer
system.cpu.rename.tempSerializingInsts            953                       # count of temporary serializing insts renamed
system.cpu.rob.rob_reads                      6450690                       # The number of ROB reads
system.cpu.rob.rob_writes                     9604020                       # The number of ROB writes
system.cpu.timesIdled                            1619                       # Number of times that the entire CPU went into an idle state and unscheduled itself
system.l2bus.snoop_filter.hit_multi_requests           13                       # Number of requests hitting in the snoop filter with multiple (>1) holders of the requested data.
system.l2bus.snoop_filter.hit_multi_snoops            0                       # Number of snoops hitting in the snoop filter with multiple (>1) holders of the requested data.
system.l2bus.snoop_filter.hit_single_requests        18601                       # Number of requests hitting in the snoop filter with a single holder of the requested data.
system.l2bus.snoop_filter.hit_single_snoops          437                       # Number of snoops hitting in the snoop filter with a single holder of the requested data.
system.l2bus.snoop_filter.tot_requests          38482                       # Total number of requests made to the snoop filter.
system.l2bus.snoop_filter.tot_snoops              437                       # Total number of snoops made to the snoop filter.
system.l2cache.prefetcher.num_hwpf_issued          682                       # number of hwpf issued
system.l2cache.prefetcher.pfBufferHit               0                       # number of redundant prefetches already in prefetch queue
system.l2cache.prefetcher.pfIdentified            682                       # number of prefetch candidates identified
system.l2cache.prefetcher.pfInCache                 0                       # number of redundant prefetches already in cache/mshr dropped
system.l2cache.prefetcher.pfRemovedFull             0                       # number of prefetches dropped due to prefetch queue size
system.l2cache.prefetcher.pfSpanPage               98                       # number of prefetches that crossed the page
system.membus.snoop_filter.hit_multi_requests            0                       # Number of requests hitting in the snoop filter with multiple (>1) holders of the requested data.
system.membus.snoop_filter.hit_multi_snoops            0                       # Number of snoops hitting in the snoop filter with multiple (>1) holders of the requested data.
system.membus.snoop_filter.hit_single_requests         9462                       # Number of requests hitting in the snoop filter with a single holder of the requested data.
system.membus.snoop_filter.hit_single_snoops            0                       # Number of snoops hitting in the snoop filter with a single holder of the requested data.
system.membus.snoop_filter.tot_requests         23045                       # Total number of requests made to the snoop filter.
system.membus.snoop_filter.tot_snoops               0                       # Total number of snoops made to the snoop filter.
system.membus.pwrStateResidencyTicks::UNDEFINED   1122580000                       # Cumulative time (in ticks) in various power states
system.membus.trans_dist::ReadResp              12248                       # Transaction distribution
system.membus.trans_dist::WritebackDirty         1351                       # Transaction distribution
system.membus.trans_dist::CleanEvict             8111                       # Transaction distribution
system.membus.trans_dist::ReadExReq              1335                       # Transaction distribution
system.membus.trans_dist::ReadExResp             1335                       # Transaction distribution
system.membus.trans_dist::ReadSharedReq         12248                       # Transaction distribution
system.membus.pkt_count_system.l2cache.mem_side::system.mem_ctrl.port        36628                       # Packet count per connected master and slave (bytes)
system.membus.pkt_count_system.l2cache.mem_side::total        36628                       # Packet count per connected master and slave (bytes)
system.membus.pkt_count::total                  36628                       # Packet count per connected master and slave (bytes)
system.membus.pkt_size_system.l2cache.mem_side::system.mem_ctrl.port       955776                       # Cumulative packet size per connected master and slave (bytes)
system.membus.pkt_size_system.l2cache.mem_side::total       955776                       # Cumulative packet size per connected master and slave (bytes)
system.membus.pkt_size::total                  955776                       # Cumulative packet size per connected master and slave (bytes)
system.membus.snoops                                0                       # Total snoops (count)
system.membus.snoopTraffic                          0                       # Total snoop traffic (bytes)
system.membus.snoop_fanout::samples             13583                       # Request fanout histogram
system.membus.snoop_fanout::mean                    0                       # Request fanout histogram
system.membus.snoop_fanout::stdev                   0                       # Request fanout histogram
system.membus.snoop_fanout::underflows              0      0.00%      0.00% # Request fanout histogram
system.membus.snoop_fanout::0                   13583    100.00%    100.00% # Request fanout histogram
system.membus.snoop_fanout::1                       0      0.00%    100.00% # Request fanout histogram
system.membus.snoop_fanout::overflows               0      0.00%    100.00% # Request fanout histogram
system.membus.snoop_fanout::min_value               0                       # Request fanout histogram
system.membus.snoop_fanout::max_value               0                       # Request fanout histogram
system.membus.snoop_fanout::total               13583                       # Request fanout histogram
system.membus.reqLayer2.occupancy            11405389                       # Layer occupancy (ticks)
system.membus.reqLayer2.utilization               1.0                       # Layer utilization (%)
system.membus.respLayer0.occupancy           29491211                       # Layer occupancy (ticks)
system.membus.respLayer0.utilization              2.6                       # Layer utilization (%)
system.l2bus.pwrStateResidencyTicks::UNDEFINED   1122580000                       # Cumulative time (in ticks) in various power states
system.l2bus.trans_dist::ReadResp               17781                       # Transaction distribution
system.l2bus.trans_dist::WritebackDirty          4144                       # Transaction distribution
system.l2bus.trans_dist::CleanEvict             24004                       # Transaction distribution
system.l2bus.trans_dist::HardPFReq                961                       # Transaction distribution
system.l2bus.trans_dist::ReadExReq               2100                       # Transaction distribution
system.l2bus.trans_dist::ReadExResp              2100                       # Transaction distribution
system.l2bus.trans_dist::ReadSharedReq          17781                       # Transaction distribution
system.l2bus.pkt_count_system.cpu.icache.mem_side::system.l2cache.cpu_side         8381                       # Packet count per connected master and slave (bytes)
system.l2bus.pkt_count_system.cpu.dcache.mem_side::system.l2cache.cpu_side        49977                       # Packet count per connected master and slave (bytes)
system.l2bus.pkt_count::total                   58358                       # Packet count per connected master and slave (bytes)
system.l2bus.pkt_size_system.cpu.icache.mem_side::system.l2cache.cpu_side       184256                       # Cumulative packet size per connected master and slave (bytes)
system.l2bus.pkt_size_system.cpu.dcache.mem_side::system.l2cache.cpu_side      1266560                       # Cumulative packet size per connected master and slave (bytes)
system.l2bus.pkt_size::total                  1450816                       # Cumulative packet size per connected master and slave (bytes)
system.l2bus.snoops                             10513                       # Total snoops (count)
system.l2bus.snoopTraffic                       86784                       # Total snoop traffic (bytes)
system.l2bus.snoop_fanout::samples              30389                       # Request fanout histogram
system.l2bus.snoop_fanout::mean              0.014808                       # Request fanout histogram
system.l2bus.snoop_fanout::stdev             0.120786                       # Request fanout histogram
system.l2bus.snoop_fanout::underflows               0      0.00%      0.00% # Request fanout histogram
system.l2bus.snoop_fanout::0                    29939     98.52%     98.52% # Request fanout histogram
system.l2bus.snoop_fanout::1                      450      1.48%    100.00% # Request fanout histogram
system.l2bus.snoop_fanout::2                        0      0.00%    100.00% # Request fanout histogram
system.l2bus.snoop_fanout::overflows                0      0.00%    100.00% # Request fanout histogram
system.l2bus.snoop_fanout::min_value                0                       # Request fanout histogram
system.l2bus.snoop_fanout::max_value                1                       # Request fanout histogram
system.l2bus.snoop_fanout::total                30389                       # Request fanout histogram
system.l2bus.respLayer1.occupancy            20401998                       # Layer occupancy (ticks)
system.l2bus.respLayer1.utilization               1.8                       # Layer utilization (%)
system.l2bus.reqLayer0.occupancy             19070998                       # Layer occupancy (ticks)
system.l2bus.reqLayer0.utilization                1.7                       # Layer utilization (%)
system.l2bus.respLayer0.occupancy             3456798                       # Layer occupancy (ticks)
system.l2bus.respLayer0.utilization               0.3                       # Layer utilization (%)
system.clk_domain.clock                           400                       # Clock period in ticks
system.clk_domain.voltage_domain.voltage            1                       # Voltage in Volts
system.cpu.pwrStateResidencyTicks::ON      1122580000                       # Cumulative time (in ticks) in various power states
system.cpu.icache.pwrStateResidencyTicks::UNDEFINED   1122580000                       # Cumulative time (in ticks) in various power states
system.cpu.icache.demand_hits::.cpu.inst       248405                       # number of demand (read+write) hits
system.cpu.icache.demand_hits::total           248405                       # number of demand (read+write) hits
system.cpu.icache.overall_hits::.cpu.inst       248405                       # number of overall hits
system.cpu.icache.overall_hits::total          248405                       # number of overall hits
system.cpu.icache.demand_misses::.cpu.inst         3591                       # number of demand (read+write) misses
system.cpu.icache.demand_misses::total           3591                       # number of demand (read+write) misses
system.cpu.icache.overall_misses::.cpu.inst         3591                       # number of overall misses
system.cpu.icache.overall_misses::total          3591                       # number of overall misses
system.cpu.icache.demand_miss_latency::.cpu.inst    179122000                       # number of demand (read+write) miss cycles
system.cpu.icache.demand_miss_latency::total    179122000                       # number of demand (read+write) miss cycles
system.cpu.icache.overall_miss_latency::.cpu.inst    179122000                       # number of overall miss cycles
system.cpu.icache.overall_miss_latency::total    179122000                       # number of overall miss cycles
system.cpu.icache.demand_accesses::.cpu.inst       251996                       # number of demand (read+write) accesses
system.cpu.icache.demand_accesses::total       251996                       # number of demand (read+write) accesses
system.cpu.icache.overall_accesses::.cpu.inst       251996                       # number of overall (read+write) accesses
system.cpu.icache.overall_accesses::total       251996                       # number of overall (read+write) accesses
system.cpu.icache.demand_miss_rate::.cpu.inst     0.014250                       # miss rate for demand accesses
system.cpu.icache.demand_miss_rate::total     0.014250                       # miss rate for demand accesses
system.cpu.icache.overall_miss_rate::.cpu.inst     0.014250                       # miss rate for overall accesses
system.cpu.icache.overall_miss_rate::total     0.014250                       # miss rate for overall accesses
system.cpu.icache.demand_avg_miss_latency::.cpu.inst 49880.813144                       # average overall miss latency
system.cpu.icache.demand_avg_miss_latency::total 49880.813144                       # average overall miss latency
system.cpu.icache.overall_avg_miss_latency::.cpu.inst 49880.813144                       # average overall miss latency
system.cpu.icache.overall_avg_miss_latency::total 49880.813144                       # average overall miss latency
system.cpu.icache.blocked_cycles::no_mshrs           51                       # number of cycles access was blocked
system.cpu.icache.blocked_cycles::no_targets            0                       # number of cycles access was blocked
system.cpu.icache.blocked::no_mshrs                 2                       # number of cycles access was blocked
system.cpu.icache.blocked::no_targets               0                       # number of cycles access was blocked
system.cpu.icache.avg_blocked_cycles::no_mshrs    25.500000                       # average number of cycles each access was blocked
system.cpu.icache.avg_blocked_cycles::no_targets          nan                       # average number of cycles each access was blocked
system.cpu.icache.writebacks::.writebacks            2                       # number of writebacks
system.cpu.icache.writebacks::total                 2                       # number of writebacks
system.cpu.icache.demand_mshr_hits::.cpu.inst          711                       # number of demand (read+write) MSHR hits
system.cpu.icache.demand_mshr_hits::total          711                       # number of demand (read+write) MSHR hits
system.cpu.icache.overall_mshr_hits::.cpu.inst          711                       # number of overall MSHR hits
system.cpu.icache.overall_mshr_hits::total          711                       # number of overall MSHR hits
system.cpu.icache.demand_mshr_misses::.cpu.inst         2880                       # number of demand (read+write) MSHR misses
system.cpu.icache.demand_mshr_misses::total         2880                       # number of demand (read+write) MSHR misses
system.cpu.icache.overall_mshr_misses::.cpu.inst         2880                       # number of overall MSHR misses
system.cpu.icache.overall_mshr_misses::total         2880                       # number of overall MSHR misses
system.cpu.icache.demand_mshr_miss_latency::.cpu.inst    143385200                       # number of demand (read+write) MSHR miss cycles
system.cpu.icache.demand_mshr_miss_latency::total    143385200                       # number of demand (read+write) MSHR miss cycles
system.cpu.icache.overall_mshr_miss_latency::.cpu.inst    143385200                       # number of overall MSHR miss cycles
system.cpu.icache.overall_mshr_miss_latency::total    143385200                       # number of overall MSHR miss cycles
system.cpu.icache.demand_mshr_miss_rate::.cpu.inst     0.011429                       # mshr miss rate for demand accesses
system.cpu.icache.demand_mshr_miss_rate::total     0.011429                       # mshr miss rate for demand accesses
system.cpu.icache.overall_mshr_miss_rate::.cpu.inst     0.011429                       # mshr miss rate for overall accesses
system.cpu.icache.overall_mshr_miss_rate::total     0.011429                       # mshr miss rate for overall accesses
system.cpu.icache.demand_avg_mshr_miss_latency::.cpu.inst 49786.527778                       # average overall mshr miss latency
system.cpu.icache.demand_avg_mshr_miss_latency::total 49786.527778                       # average overall mshr miss latency
system.cpu.icache.overall_avg_mshr_miss_latency::.cpu.inst 49786.527778                       # average overall mshr miss latency
system.cpu.icache.overall_avg_mshr_miss_latency::total 49786.527778                       # average overall mshr miss latency
system.cpu.icache.replacements                   2624                       # number of replacements
system.cpu.icache.ReadReq_hits::.cpu.inst       248405                       # number of ReadReq hits
system.cpu.icache.ReadReq_hits::total          248405                       # number of ReadReq hits
system.cpu.icache.ReadReq_misses::.cpu.inst         3591                       # number of ReadReq misses
system.cpu.icache.ReadReq_misses::total          3591                       # number of ReadReq misses
system.cpu.icache.ReadReq_miss_latency::.cpu.inst    179122000                       # number of ReadReq miss cycles
system.cpu.icache.ReadReq_miss_latency::total    179122000                       # number of ReadReq miss cycles
system.cpu.icache.ReadReq_accesses::.cpu.inst       251996                       # number of ReadReq accesses(hits+misses)
system.cpu.icache.ReadReq_accesses::total       251996                       # number of ReadReq accesses(hits+misses)
system.cpu.icache.ReadReq_miss_rate::.cpu.inst     0.014250                       # miss rate for ReadReq accesses
system.cpu.icache.ReadReq_miss_rate::total     0.014250                       # miss rate for ReadReq accesses
system.cpu.icache.ReadReq_avg_miss_latency::.cpu.inst 49880.813144                       # average ReadReq miss latency
system.cpu.icache.ReadReq_avg_miss_latency::total 49880.813144                       # average ReadReq miss latency
system.cpu.icache.ReadReq_mshr_hits::.cpu.inst          711                       # number of ReadReq MSHR hits
system.cpu.icache.ReadReq_mshr_hits::total          711                       # number of ReadReq MSHR hits
system.cpu.icache.ReadReq_mshr_misses::.cpu.inst         2880                       # number of ReadReq MSHR misses
system.cpu.icache.ReadReq_mshr_misses::total         2880                       # number of ReadReq MSHR misses
system.cpu.icache.ReadReq_mshr_miss_latency::.cpu.inst    143385200                       # number of ReadReq MSHR miss cycles
system.cpu.icache.ReadReq_mshr_miss_latency::total    143385200                       # number of ReadReq MSHR miss cycles
system.cpu.icache.ReadReq_mshr_miss_rate::.cpu.inst     0.011429                       # mshr miss rate for ReadReq accesses
system.cpu.icache.ReadReq_mshr_miss_rate::total     0.011429                       # mshr miss rate for ReadReq accesses
system.cpu.icache.ReadReq_avg_mshr_miss_latency::.cpu.inst 49786.527778                       # average ReadReq mshr miss latency
system.cpu.icache.ReadReq_avg_mshr_miss_latency::total 49786.527778                       # average ReadReq mshr miss latency
system.cpu.icache.prefetcher.pwrStateResidencyTicks::UNDEFINED   1122580000                       # Cumulative time (in ticks) in various power states
system.cpu.icache.tags.pwrStateResidencyTicks::UNDEFINED   1122580000                       # Cumulative time (in ticks) in various power states
system.cpu.icache.tags.tagsinuse           253.550836                       # Cycle average of tags in use
system.cpu.icache.tags.total_refs              237467                       # Total number of references to valid blocks.
system.cpu.icache.tags.sampled_refs              2624                       # Sample count of references to valid blocks.
system.cpu.icache.tags.avg_refs             90.498095                       # Average number of references to valid blocks.
system.cpu.icache.tags.warmup_cycle             66400                       # Cycle when the warmup percentage was hit.
system.cpu.icache.tags.occ_blocks::.cpu.inst   253.550836                       # Average occupied blocks per requestor
system.cpu.icache.tags.occ_percent::.cpu.inst     0.990433                       # Average percentage of cache occupancy
system.cpu.icache.tags.occ_percent::total     0.990433                       # Average percentage of cache occupancy
system.cpu.icache.tags.occ_task_id_blocks::1024          256                       # Occupied blocks per task id
system.cpu.icache.tags.age_task_id_blocks_1024::0          107                       # Occupied blocks per task id
system.cpu.icache.tags.age_task_id_blocks_1024::1          120                       # Occupied blocks per task id
system.cpu.icache.tags.age_task_id_blocks_1024::2           29                       # Occupied blocks per task id
system.cpu.icache.tags.occ_task_id_percent::1024            1                       # Percentage of cache occupancy per task id
system.cpu.icache.tags.tag_accesses            506872                       # Number of tag accesses
system.cpu.icache.tags.data_accesses           506872                       # Number of data accesses
system.cpu.dtb.walker.pwrStateResidencyTicks::UNDEFINED   1122580000                       # Cumulative time (in ticks) in various power states
system.cpu.interrupts.clk_domain.clock           6400                       # Clock period in ticks
system.cpu.itb.walker.pwrStateResidencyTicks::UNDEFINED   1122580000                       # Cumulative time (in ticks) in various power states
system.cpu.dcache.pwrStateResidencyTicks::UNDEFINED   1122580000                       # Cumulative time (in ticks) in various power states
system.cpu.dcache.demand_hits::.cpu.data       713869                       # number of demand (read+write) hits
system.cpu.dcache.demand_hits::total           713869                       # number of demand (read+write) hits
system.cpu.dcache.overall_hits::.cpu.data       713869                       # number of overall hits
system.cpu.dcache.overall_hits::total          713869                       # number of overall hits
system.cpu.dcache.demand_misses::.cpu.data        34795                       # number of demand (read+write) misses
system.cpu.dcache.demand_misses::total          34795                       # number of demand (read+write) misses
system.cpu.dcache.overall_misses::.cpu.data        34795                       # number of overall misses
system.cpu.dcache.overall_misses::total         34795                       # number of overall misses
system.cpu.dcache.demand_miss_latency::.cpu.data   1684588399                       # number of demand (read+write) miss cycles
system.cpu.dcache.demand_miss_latency::total   1684588399                       # number of demand (read+write) miss cycles
system.cpu.dcache.overall_miss_latency::.cpu.data   1684588399                       # number of overall miss cycles
system.cpu.dcache.overall_miss_latency::total   1684588399                       # number of overall miss cycles
system.cpu.dcache.demand_accesses::.cpu.data       748664                       # number of demand (read+write) accesses
system.cpu.dcache.demand_accesses::total       748664                       # number of demand (read+write) accesses
system.cpu.dcache.overall_accesses::.cpu.data       748664                       # number of overall (read+write) accesses
system.cpu.dcache.overall_accesses::total       748664                       # number of overall (read+write) accesses
system.cpu.dcache.demand_miss_rate::.cpu.data     0.046476                       # miss rate for demand accesses
system.cpu.dcache.demand_miss_rate::total     0.046476                       # miss rate for demand accesses
system.cpu.dcache.overall_miss_rate::.cpu.data     0.046476                       # miss rate for overall accesses
system.cpu.dcache.overall_miss_rate::total     0.046476                       # miss rate for overall accesses
system.cpu.dcache.demand_avg_miss_latency::.cpu.data 48414.668746                       # average overall miss latency
system.cpu.dcache.demand_avg_miss_latency::total 48414.668746                       # average overall miss latency
system.cpu.dcache.overall_avg_miss_latency::.cpu.data 48414.668746                       # average overall miss latency
system.cpu.dcache.overall_avg_miss_latency::total 48414.668746                       # average overall miss latency
system.cpu.dcache.blocked_cycles::no_mshrs        28765                       # number of cycles access was blocked
system.cpu.dcache.blocked_cycles::no_targets          201                       # number of cycles access was blocked
system.cpu.dcache.blocked::no_mshrs               783                       # number of cycles access was blocked
system.cpu.dcache.blocked::no_targets               2                       # number of cycles access was blocked
system.cpu.dcache.avg_blocked_cycles::no_mshrs    36.736909                       # average number of cycles each access was blocked
system.cpu.dcache.avg_blocked_cycles::no_targets   100.500000                       # average number of cycles each access was blocked
system.cpu.dcache.unused_prefetches              1784                       # number of HardPF blocks evicted w/o reference
system.cpu.dcache.writebacks::.writebacks         2791                       # number of writebacks
system.cpu.dcache.writebacks::total              2791                       # number of writebacks
system.cpu.dcache.demand_mshr_hits::.cpu.data        22178                       # number of demand (read+write) MSHR hits
system.cpu.dcache.demand_mshr_hits::total        22178                       # number of demand (read+write) MSHR hits
system.cpu.dcache.overall_mshr_hits::.cpu.data        22178                       # number of overall MSHR hits
system.cpu.dcache.overall_mshr_hits::total        22178                       # number of overall MSHR hits
system.cpu.dcache.demand_mshr_misses::.cpu.data        12617                       # number of demand (read+write) MSHR misses
system.cpu.dcache.demand_mshr_misses::total        12617                       # number of demand (read+write) MSHR misses
system.cpu.dcache.overall_mshr_misses::.cpu.data        12617                       # number of overall MSHR misses
system.cpu.dcache.overall_mshr_misses::.cpu.dcache.prefetcher         4384                       # number of overall MSHR misses
system.cpu.dcache.overall_mshr_misses::total        17001                       # number of overall MSHR misses
system.cpu.dcache.demand_mshr_miss_latency::.cpu.data    578875999                       # number of demand (read+write) MSHR miss cycles
system.cpu.dcache.demand_mshr_miss_latency::total    578875999                       # number of demand (read+write) MSHR miss cycles
system.cpu.dcache.overall_mshr_miss_latency::.cpu.data    578875999                       # number of overall MSHR miss cycles
system.cpu.dcache.overall_mshr_miss_latency::.cpu.dcache.prefetcher    247926878                       # number of overall MSHR miss cycles
system.cpu.dcache.overall_mshr_miss_latency::total    826802877                       # number of overall MSHR miss cycles
system.cpu.dcache.demand_mshr_miss_rate::.cpu.data     0.016853                       # mshr miss rate for demand accesses
system.cpu.dcache.demand_mshr_miss_rate::total     0.016853                       # mshr miss rate for demand accesses
system.cpu.dcache.overall_mshr_miss_rate::.cpu.data     0.016853                       # mshr miss rate for overall accesses
system.cpu.dcache.overall_mshr_miss_rate::.cpu.dcache.prefetcher          inf                       # mshr miss rate for overall accesses
system.cpu.dcache.overall_mshr_miss_rate::total     0.022708                       # mshr miss rate for overall accesses
system.cpu.dcache.demand_avg_mshr_miss_latency::.cpu.data 45880.637156                       # average overall mshr miss latency
system.cpu.dcache.demand_avg_mshr_miss_latency::total 45880.637156                       # average overall mshr miss latency
system.cpu.dcache.overall_avg_mshr_miss_latency::.cpu.data 45880.637156                       # average overall mshr miss latency
system.cpu.dcache.overall_avg_mshr_miss_latency::.cpu.dcache.prefetcher 56552.663777                       # average overall mshr miss latency
system.cpu.dcache.overall_avg_mshr_miss_latency::total 48632.602612                       # average overall mshr miss latency
system.cpu.dcache.replacements                  15977                       # number of replacements
system.cpu.dcache.ReadReq_hits::.cpu.data       524137                       # number of ReadReq hits
system.cpu.dcache.ReadReq_hits::total          524137                       # number of ReadReq hits
system.cpu.dcache.ReadReq_misses::.cpu.data        32657                       # number of ReadReq misses
system.cpu.dcache.ReadReq_misses::total         32657                       # number of ReadReq misses
system.cpu.dcache.ReadReq_miss_latency::.cpu.data   1580284800                       # number of ReadReq miss cycles
system.cpu.dcache.ReadReq_miss_latency::total   1580284800                       # number of ReadReq miss cycles
system.cpu.dcache.ReadReq_accesses::.cpu.data       556794                       # number of ReadReq accesses(hits+misses)
system.cpu.dcache.ReadReq_accesses::total       556794                       # number of ReadReq accesses(hits+misses)
system.cpu.dcache.ReadReq_miss_rate::.cpu.data     0.058652                       # miss rate for ReadReq accesses
system.cpu.dcache.ReadReq_miss_rate::total     0.058652                       # miss rate for ReadReq accesses
system.cpu.dcache.ReadReq_avg_miss_latency::.cpu.data 48390.384910                       # average ReadReq miss latency
system.cpu.dcache.ReadReq_avg_miss_latency::total 48390.384910                       # average ReadReq miss latency
system.cpu.dcache.ReadReq_mshr_hits::.cpu.data        22139                       # number of ReadReq MSHR hits
system.cpu.dcache.ReadReq_mshr_hits::total        22139                       # number of ReadReq MSHR hits
system.cpu.dcache.ReadReq_mshr_misses::.cpu.data        10518                       # number of ReadReq MSHR misses
system.cpu.dcache.ReadReq_mshr_misses::total        10518                       # number of ReadReq MSHR misses
system.cpu.dcache.ReadReq_mshr_miss_latency::.cpu.data    477586400                       # number of ReadReq MSHR miss cycles
system.cpu.dcache.ReadReq_mshr_miss_latency::total    477586400                       # number of ReadReq MSHR miss cycles
system.cpu.dcache.ReadReq_mshr_miss_rate::.cpu.data     0.018890                       # mshr miss rate for ReadReq accesses
system.cpu.dcache.ReadReq_mshr_miss_rate::total     0.018890                       # mshr miss rate for ReadReq accesses
system.cpu.dcache.ReadReq_avg_mshr_miss_latency::.cpu.data 45406.579198                       # average ReadReq mshr miss latency
system.cpu.dcache.ReadReq_avg_mshr_miss_latency::total 45406.579198                       # average ReadReq mshr miss latency
system.cpu.dcache.WriteReq_hits::.cpu.data       189732                       # number of WriteReq hits
system.cpu.dcache.WriteReq_hits::total         189732                       # number of WriteReq hits
system.cpu.dcache.WriteReq_misses::.cpu.data         2138                       # number of WriteReq misses
system.cpu.dcache.WriteReq_misses::total         2138                       # number of WriteReq misses
system.cpu.dcache.WriteReq_miss_latency::.cpu.data    104303599                       # number of WriteReq miss cycles
system.cpu.dcache.WriteReq_miss_latency::total    104303599                       # number of WriteReq miss cycles
system.cpu.dcache.WriteReq_accesses::.cpu.data       191870                       # number of WriteReq accesses(hits+misses)
system.cpu.dcache.WriteReq_accesses::total       191870                       # number of WriteReq accesses(hits+misses)
system.cpu.dcache.WriteReq_miss_rate::.cpu.data     0.011143                       # miss rate for WriteReq accesses
system.cpu.dcache.WriteReq_miss_rate::total     0.011143                       # miss rate for WriteReq accesses
system.cpu.dcache.WriteReq_avg_miss_latency::.cpu.data 48785.593545                       # average WriteReq miss latency
system.cpu.dcache.WriteReq_avg_miss_latency::total 48785.593545                       # average WriteReq miss latency
system.cpu.dcache.WriteReq_mshr_hits::.cpu.data           39                       # number of WriteReq MSHR hits
system.cpu.dcache.WriteReq_mshr_hits::total           39                       # number of WriteReq MSHR hits
system.cpu.dcache.WriteReq_mshr_misses::.cpu.data         2099                       # number of WriteReq MSHR misses
system.cpu.dcache.WriteReq_mshr_misses::total         2099                       # number of WriteReq MSHR misses
[...]
system.l2cache.writebacks::total                   22                       # number of writebacks
system.l2cache.demand_mshr_misses::.cpu.inst          230                       # number of demand (read+write) MSHR misses
system.l2cache.demand_mshr_misses::.cpu.data          113                       # number of demand (read+write) MSHR misses
system.l2cache.demand_mshr_misses::.cpu.dcache.prefetcher           52                       # number of demand (read+write) MSHR misses
system.l2cache.demand_mshr_misses::total          395                       # number of demand (read+write) MSHR misses
system.l2cache.overall_mshr_misses::.cpu.inst          230                       # number of overall MSHR misses
system.l2cache.overall_mshr_misses::.cpu.data          113                       # number of overall MSHR misses
system.l2cache.overall_mshr_misses::.cpu.dcache.prefetcher           52                       # number of overall MSHR misses
system.l2cache.overall_mshr_misses::total          395                       # number of overall MSHR misses
system.l2cache.demand_mshr_miss_latency::.cpu.inst     13772800                       # number of demand (read+write) MSHR miss cycles
system.l2cache.demand_mshr_miss_latency::.cpu.data      6670400                       # number of demand (read+write) MSHR miss cycles
system.l2cache.demand_mshr_miss_latency::.cpu.dcache.prefetcher      3188346                       # number of demand (read+write) MSHR miss cycles
system.l2cache.demand_mshr_miss_latency::total     23631546                       # number of demand (read+write) MSHR miss cycles
system.l2cache.overall_mshr_miss_latency::.cpu.inst     13772800                       # number of overall MSHR miss cycles
system.l2cache.overall_mshr_miss_latency::.cpu.data      6670400                       # number of overall MSHR miss cycles
system.l2cache.overall_mshr_miss_latency::.cpu.dcache.prefetcher      3188346                       # number of overall MSHR miss cycles
system.l2cache.overall_mshr_miss_latency::total     23631546                       # number of overall MSHR miss cycles
system.l2cache.demand_mshr_miss_rate::.cpu.inst     0.522727                       # mshr miss rate for demand accesses
system.l2cache.demand_mshr_miss_rate::.cpu.data     0.497797                       # mshr miss rate for demand accesses
system.l2cache.demand_mshr_miss_rate::.cpu.dcache.prefetcher     0.852459                       # mshr miss rate for demand accesses
system.l2cache.demand_mshr_miss_rate::total     0.542582                       # mshr miss rate for demand accesses
system.l2cache.overall_mshr_miss_rate::.cpu.inst     0.522727                       # mshr miss rate for overall accesses
system.l2cache.overall_mshr_miss_rate::.cpu.data     0.497797                       # mshr miss rate for overall accesses
system.l2cache.overall_mshr_miss_rate::.cpu.dcache.prefetcher     0.852459                       # mshr miss rate for overall accesses
system.l2cache.overall_mshr_miss_rate::total     0.542582                       # mshr miss rate for overall accesses
system.l2cache.demand_avg_mshr_miss_latency::.cpu.inst 59881.739130                       # average overall mshr miss latency
system.l2cache.demand_avg_mshr_miss_latency::.cpu.data 59030.088496                       # average overall mshr miss latency
system.l2cache.demand_avg_mshr_miss_latency::.cpu.dcache.prefetcher 61314.346154                       # average overall mshr miss latency
system.l2cache.demand_avg_mshr_miss_latency::total 59826.698734                       # average overall mshr miss latency
system.l2cache.overall_avg_mshr_miss_latency::.cpu.inst 59881.739130                       # average overall mshr miss latency
system.l2cache.overall_avg_mshr_miss_latency::.cpu.data 59030.088496                       # average overall mshr miss latency
system.l2cache.overall_avg_mshr_miss_latency::.cpu.dcache.prefetcher 61314.346154                       # average overall mshr miss latency
system.l2cache.overall_avg_mshr_miss_latency::total 59826.698734                       # average overall mshr miss latency
system.l2cache.replacements                       405                       # number of replacements
system.l2cache.WritebackDirty_hits::.writebacks           84                       # number of WritebackDirty hits
system.l2cache.WritebackDirty_hits::total           84                       # number of WritebackDirty hits
system.l2cache.WritebackDirty_accesses::.writebacks           84                       # number of WritebackDirty accesses(hits+misses)
system.l2cache.WritebackDirty_accesses::total           84                       # number of WritebackDirty accesses(hits+misses)
system.l2cache.CleanEvict_mshr_misses::.writebacks            9                       # number of CleanEvict MSHR misses
system.l2cache.CleanEvict_mshr_misses::total            9                       # number of CleanEvict MSHR misses
system.l2cache.CleanEvict_mshr_miss_rate::.writebacks          inf                       # mshr miss rate for CleanEvict accesses
system.l2cache.CleanEvict_mshr_miss_rate::total          inf                       # mshr miss rate for CleanEvict accesses
system.l2cache.ReadExReq_hits::.cpu.data            5                       # number of ReadExReq hits
system.l2cache.ReadExReq_hits::total                5                       # number of ReadExReq hits
system.l2cache.ReadExReq_misses::.cpu.data            6                       # number of ReadExReq misses
system.l2cache.ReadExReq_misses::total              6                       # number of ReadExReq misses
system.l2cache.ReadExReq_miss_latency::.cpu.data       430400                       # number of ReadExReq miss cycles
system.l2cache.ReadExReq_miss_latency::total       430400                       # number of ReadExReq miss cycles
system.l2cache.ReadExReq_accesses::.cpu.data           11                       # number of ReadExReq accesses(hits+misses)
system.l2cache.ReadExReq_accesses::total           11                       # number of ReadExReq accesses(hits+misses)
system.l2cache.ReadExReq_miss_rate::.cpu.data     0.545455                       # miss rate for ReadExReq accesses
system.l2cache.ReadExReq_miss_rate::total     0.545455                       # miss rate for ReadExReq accesses
system.l2cache.ReadExReq_avg_miss_latency::.cpu.data 71733.333333                       # average ReadExReq miss latency
system.l2cache.ReadExReq_avg_miss_latency::total 71733.333333                       # average ReadExReq miss latency
system.l2cache.ReadExReq_mshr_misses::.cpu.data            6                       # number of ReadExReq MSHR misses
system.l2cache.ReadExReq_mshr_misses::total            6                       # number of ReadExReq MSHR misses
system.l2cache.ReadExReq_mshr_miss_latency::.cpu.data       382400                       # number of ReadExReq MSHR miss cycles
system.l2cache.ReadExReq_mshr_miss_latency::total       382400                       # number of ReadExReq MSHR miss cycles
system.l2cache.ReadExReq_mshr_miss_rate::.cpu.data     0.545455                       # mshr miss rate for ReadExReq accesses
system.l2cache.ReadExReq_mshr_miss_rate::total     0.545455                       # mshr miss rate for ReadExReq accesses
system.l2cache.ReadExReq_avg_mshr_miss_latency::.cpu.data 63733.333333                       # average ReadExReq mshr miss latency
system.l2cache.ReadExReq_avg_mshr_miss_latency::total 63733.333333                       # average ReadExReq mshr miss latency
system.l2cache.ReadSharedReq_hits::.cpu.inst          210                       # number of ReadSharedReq hits
system.l2cache.ReadSharedReq_hits::.cpu.data          109                       # number of ReadSharedReq hits
system.l2cache.ReadSharedReq_hits::.cpu.dcache.prefetcher            9                       # number of ReadSharedReq hits
system.l2cache.ReadSharedReq_hits::total          328                       # number of ReadSharedReq hits
system.l2cache.ReadSharedReq_misses::.cpu.inst          230                       # number of ReadSharedReq misses
system.l2cache.ReadSharedReq_misses::.cpu.data          107                       # number of ReadSharedReq misses
system.l2cache.ReadSharedReq_misses::.cpu.dcache.prefetcher           52                       # number of ReadSharedReq misses
system.l2cache.ReadSharedReq_misses::total          389                       # number of ReadSharedReq misses
system.l2cache.ReadSharedReq_miss_latency::.cpu.inst     15620800                       # number of ReadSharedReq miss cycles
system.l2cache.ReadSharedReq_miss_latency::.cpu.data      7144000                       # number of ReadSharedReq miss cycles
system.l2cache.ReadSharedReq_miss_latency::.cpu.dcache.prefetcher      3604346                       # number of ReadSharedReq miss cycles
system.l2cache.ReadSharedReq_miss_latency::total     26369146                       # number of ReadSharedReq miss cycles
system.l2cache.ReadSharedReq_accesses::.cpu.inst          440                       # number of ReadSharedReq accesses(hits+misses)
system.l2cache.ReadSharedReq_accesses::.cpu.data          216                       # number of ReadSharedReq accesses(hits+misses)
system.l2cache.ReadSharedReq_accesses::.cpu.dcache.prefetcher           61                       # number of ReadSharedReq accesses(hits+misses)
system.l2cache.ReadSharedReq_accesses::total          717                       # number of ReadSharedReq accesses(hits+misses)
system.l2cache.ReadSharedReq_miss_rate::.cpu.inst     0.522727                       # miss rate for ReadSharedReq accesses
system.l2cache.ReadSharedReq_miss_rate::.cpu.data     0.495370                       # miss rate for ReadSharedReq accesses
system.l2cache.ReadSharedReq_miss_rate::.cpu.dcache.prefetcher     0.852459                       # miss rate for ReadSharedReq accesses
system.l2cache.ReadSharedReq_miss_rate::total     0.542538                       # miss rate for ReadSharedReq accesses
system.l2cache.ReadSharedReq_avg_miss_latency::.cpu.inst 67916.521739                       # average ReadSharedReq miss latency
system.l2cache.ReadSharedReq_avg_miss_latency::.cpu.data 66766.355140                       # average ReadSharedReq miss latency
system.l2cache.ReadSharedReq_avg_miss_latency::.cpu.dcache.prefetcher 69314.346154                       # average ReadSharedReq miss latency
system.l2cache.ReadSharedReq_avg_miss_latency::total 67787.007712                       # average ReadSharedReq miss latency
system.l2cache.ReadSharedReq_mshr_misses::.cpu.inst          230                       # number of ReadSharedReq MSHR misses
system.l2cache.ReadSharedReq_mshr_misses::.cpu.data          107                       # number of ReadSharedReq MSHR misses
system.l2cache.ReadSharedReq_mshr_misses::.cpu.dcache.prefetcher           52                       # number of ReadSharedReq MSHR misses
system.l2cache.ReadSharedReq_mshr_misses::total          389                       # number of ReadSharedReq MSHR misses
system.l2cache.ReadSharedReq_mshr_miss_latency::.cpu.inst     13772800                       # number of ReadSharedReq MSHR miss cycles
system.l2cache.ReadSharedReq_mshr_miss_latency::.cpu.data      6288000                       # number of ReadSharedReq MSHR miss cycles
system.l2cache.ReadSharedReq_mshr_miss_latency::.cpu.dcache.prefetcher      3188346                       # number of ReadSharedReq MSHR miss cycles
system.l2cache.ReadSharedReq_mshr_miss_latency::total     23249146                       # number of ReadSharedReq MSHR miss cycles
system.l2cache.ReadSharedReq_mshr_miss_rate::.cpu.inst     0.522727                       # mshr miss rate for ReadSharedReq accesses
system.l2cache.ReadSharedReq_mshr_miss_rate::.cpu.data     0.495370                       # mshr miss rate for ReadSharedReq accesses
system.l2cache.ReadSharedReq_mshr_miss_rate::.cpu.dcache.prefetcher     0.852459                       # mshr miss rate for ReadSharedReq accesses
system.l2cache.ReadSharedReq_mshr_miss_rate::total     0.542538                       # mshr miss rate for ReadSharedReq accesses
system.l2cache.ReadSharedReq_avg_mshr_miss_latency::.cpu.inst 59881.739130                       # average ReadSharedReq mshr miss latency
system.l2cache.ReadSharedReq_avg_mshr_miss_latency::.cpu.data 58766.355140                       # average ReadSharedReq mshr miss latency
system.l2cache.ReadSharedReq_avg_mshr_miss_latency::.cpu.dcache.prefetcher 61314.346154                       # average ReadSharedReq mshr miss latency
system.l2cache.ReadSharedReq_avg_mshr_miss_latency::total 59766.442159                       # average ReadSharedReq mshr miss latency
system.l2cache.prefetcher.pwrStateResidencyTicks::UNDEFINED     27380000                       # Cumulative time (in ticks) in various power states
system.l2cache.tags.pwrStateResidencyTicks::UNDEFINED     27380000                       # Cumulative time (in ticks) in various power states
system.l2cache.tags.tagsinuse                    4096                       # Cycle average of tags in use
system.l2cache.tags.total_refs                  14138                       # Total number of references to valid blocks.
system.l2cache.tags.sampled_refs                 4501                       # Sample count of references to valid blocks.
system.l2cache.tags.avg_refs                 3.141080                       # Average number of references to valid blocks.
system.l2cache.tags.warmup_cycle                    0                       # Cycle when the warmup percentage was hit.
system.l2cache.tags.occ_blocks::.writebacks    41.229642                       # Average occupied blocks per requestor
system.l2cache.tags.occ_blocks::.cpu.inst  1145.150128                       # Average occupied blocks per requestor
system.l2cache.tags.occ_blocks::.cpu.data  1808.820495                       # Average occupied blocks per requestor
system.l2cache.tags.occ_blocks::.cpu.dcache.prefetcher   960.227843                       # Average occupied blocks per requestor
system.l2cache.tags.occ_blocks::.l2cache.prefetcher   140.571892                       # Average occupied blocks per requestor
system.l2cache.tags.occ_percent::.writebacks     0.010066                       # Average percentage of cache occupancy
system.l2cache.tags.occ_percent::.cpu.inst     0.279578                       # Average percentage of cache occupancy
system.l2cache.tags.occ_percent::.cpu.data     0.441607                       # Average percentage of cache occupancy
system.l2cache.tags.occ_percent::.cpu.dcache.prefetcher     0.234431                       # Average percentage of cache occupancy
system.l2cache.tags.occ_percent::.l2cache.prefetcher     0.034319                       # Average percentage of cache occupancy
system.l2cache.tags.occ_percent::total              1                       # Average percentage of cache occupancy
system.l2cache.tags.occ_task_id_blocks::1022         1048                       # Occupied blocks per task id
system.l2cache.tags.occ_task_id_blocks::1024         3048                       # Occupied blocks per task id
system.l2cache.tags.age_task_id_blocks_1022::0            8                       # Occupied blocks per task id
system.l2cache.tags.age_task_id_blocks_1022::1           45                       # Occupied blocks per task id
system.l2cache.tags.age_task_id_blocks_1022::3          995                       # Occupied blocks per task id
system.l2cache.tags.age_task_id_blocks_1024::0          171                       # Occupied blocks per task id
system.l2cache.tags.age_task_id_blocks_1024::1          181                       # Occupied blocks per task id
system.l2cache.tags.age_task_id_blocks_1024::3         2696                       # Occupied blocks per task id
system.l2cache.tags.occ_task_id_percent::1022     0.255859                       # Percentage of cache occupancy per task id
system.l2cache.tags.occ_task_id_percent::1024     0.744141                       # Percentage of cache occupancy per task id
system.l2cache.tags.tag_accesses                12053                       # Number of tag accesses
system.l2cache.tags.data_accesses               12053                       # Number of data accesses
system.mem_ctrl.pwrStateResidencyTicks::UNDEFINED     27380000                       # Cumulative time (in ticks) in various power states
system.mem_ctrl.bytes_read::.cpu.inst           14784                       # Number of bytes read from this memory
system.mem_ctrl.bytes_read::.cpu.data            7232                       # Number of bytes read from this memory
system.mem_ctrl.bytes_read::.cpu.dcache.prefetcher         3328                       # Number of bytes read from this memory
system.mem_ctrl.bytes_read::total               25344                       # Number of bytes read from this memory
system.mem_ctrl.bytes_inst_read::.cpu.inst        14784                       # Number of instructions bytes read from this memory
system.mem_ctrl.bytes_inst_read::total          14784                       # Number of instructions bytes read from this memory
system.mem_ctrl.bytes_written::.writebacks         1408                       # Number of bytes written to this memory
system.mem_ctrl.bytes_written::total             1408                       # Number of bytes written to this memory
system.mem_ctrl.num_reads::.cpu.inst              231                       # Number of read requests responded to by this memory
system.mem_ctrl.num_reads::.cpu.data              113                       # Number of read requests responded to by this memory
system.mem_ctrl.num_reads::.cpu.dcache.prefetcher           52                       # Number of read requests responded to by this memory
system.mem_ctrl.num_reads::total                  396                       # Number of read requests responded to by this memory
system.mem_ctrl.num_writes::.writebacks            22                       # Number of write requests responded to by this memory
system.mem_ctrl.num_writes::total                  22                       # Number of write requests responded to by this memory
system.mem_ctrl.bw_read::.cpu.inst          539956172                       # Total read bandwidth from this memory (bytes/s)
system.mem_ctrl.bw_read::.cpu.data          264134405                       # Total read bandwidth from this memory (bytes/s)
system.mem_ctrl.bw_read::.cpu.dcache.prefetcher    121548576                       # Total read bandwidth from this memory (bytes/s)
system.mem_ctrl.bw_read::total              925639153                       # Total read bandwidth from this memory (bytes/s)
system.mem_ctrl.bw_inst_read::.cpu.inst     539956172                       # Instruction read bandwidth from this memory (bytes/s)
system.mem_ctrl.bw_inst_read::total         539956172                       # Instruction read bandwidth from this memory (bytes/s)
system.mem_ctrl.bw_write::.writebacks        51424397                       # Write bandwidth from this memory (bytes/s)
system.mem_ctrl.bw_write::total              51424397                       # Write bandwidth from this memory (bytes/s)
system.mem_ctrl.bw_total::.writebacks        51424397                       # Total bandwidth to/from this memory (bytes/s)
system.mem_ctrl.bw_total::.cpu.inst         539956172                       # Total bandwidth to/from this memory (bytes/s)
system.mem_ctrl.bw_total::.cpu.data         264134405                       # Total bandwidth to/from this memory (bytes/s)
system.mem_ctrl.bw_total::.cpu.dcache.prefetcher    121548576                       # Total bandwidth to/from this memory (bytes/s)
system.mem_ctrl.bw_total::total             977063550                       # Total bandwidth to/from this memory (bytes/s)

---------- End Simulation Statistics   ----------
