
---------- Begin Simulation Statistics ----------
final_tick                                 1306896800                       # Number of ticks from beginning of simulation (restored from checkpoints and never reset)
host_inst_rate                                 175276                       # Simulator instruction rate (inst/s)
host_mem_usage                                4408884                       # Number of bytes of host memory used
host_op_rate                                   314877                       # Simulator op (including micro ops) rate (op/s)
host_seconds                                    15.43                       # Real time elapsed on the host
host_tick_rate                               84705373                       # Simulator tick rate (ticks/s)
sim_freq                                 1000000000000                       # Frequency of simulated ticks
sim_insts                                     2704273                       # Number of instructions simulated
sim_ops                                       4858150                       # Number of ops (including micro ops) simulated
sim_seconds                                  0.001307                       # Number of seconds simulated
sim_ticks                                  1306896800                       # Number of ticks simulated
system.cpu.branchPred.BTBCorrect                    0                       # Number of correct BTB predictions (this stat may not work properly.
system.cpu.branchPred.BTBHitPct              0.000000                       # BTB Hit Percentage
system.cpu.branchPred.BTBHits                       0                       # Number of BTB hits
system.cpu.branchPred.BTBLookups               578738                       # Number of BTB lookups
system.cpu.branchPred.RASInCorrect                 35                       # Number of incorrect RAS predictions.
system.cpu.branchPred.condIncorrect             28249                       # Number of conditional branches incorrect
system.cpu.branchPred.condPredicted            593552                       # Number of conditional branches predicted
system.cpu.branchPred.indirectHits             317485                       # Number of indirect target hits.
system.cpu.branchPred.indirectLookups          578738                       # Number of indirect predictor lookups.
system.cpu.branchPred.indirectMisses           261253                       # Number of indirect misses.
system.cpu.branchPred.lookups                  652566                       # Number of BP lookups
system.cpu.branchPred.usedRAS                   27684                       # Number of times the RAS was used to get a target.
system.cpu.branchPredindirectMispredicted        16102                       # Number of mispredicted indirect branches.
system.cpu.cc_regfile_reads                   2947442                       # number of cc regfile reads
system.cpu.cc_regfile_writes                  2219507                       # number of cc regfile writes
system.cpu.commit.amos                              0                       # Number of atomic instructions committed
system.cpu.commit.branchMispredicts             28361                       # The number of times a branch was mispredicted
system.cpu.commit.branches                     499576                       # Number of branches committed
system.cpu.commit.bw_lim_events                832495                       # number cycles where commit BW limit reached
system.cpu.commit.commitNonSpecStalls             877                       # The number of times commit has been forced to stall to communicate backwards
system.cpu.commit.commitSquashedInsts          956466                       # The number of squashed insts skipped by commit
system.cpu.commit.committedInsts              2704273                       # Number of instructions committed
system.cpu.commit.committedOps                4858150                       # Number of ops (including micro ops) committed
system.cpu.commit.committed_per_cycle::samples      2836002                       # Number of insts commited each cycle
system.cpu.commit.committed_per_cycle::mean     1.713028                       # Number of insts commited each cycle
system.cpu.commit.committed_per_cycle::stdev     1.749628                       # Number of insts commited each cycle
system.cpu.commit.committed_per_cycle::underflows            0      0.00%      0.00% # Number of insts commited each cycle
system.cpu.commit.committed_per_cycle::0      1262985     44.53%     44.53% # Number of insts commited each cycle
system.cpu.commit.committed_per_cycle::1       243035      8.57%     53.10% # Number of insts commited each cycle
system.cpu.commit.committed_per_cycle::2       207326      7.31%     60.41% # Number of insts commited each cycle
system.cpu.commit.committed_per_cycle::3       290161     10.23%     70.65% # Number of insts commited each cycle
system.cpu.commit.committed_per_cycle::4       832495     29.35%    100.00% # Number of insts commited each cycle
system.cpu.commit.committed_per_cycle::overflows            0      0.00%    100.00% # Number of insts commited each cycle
system.cpu.commit.committed_per_cycle::min_value            0                       # Number of insts commited each cycle
system.cpu.commit.committed_per_cycle::max_value            4                       # Number of insts commited each cycle
system.cpu.commit.committed_per_cycle::total      2836002                       # Number of insts commited each cycle
system.cpu.commit.fp_insts                      75825                       # Number of committed floating point instructions.
system.cpu.commit.function_calls                25863                       # Number of function calls committed.
system.cpu.commit.int_insts                   4802008                       # Number of committed integer instructions.
system.cpu.commit.loads                        710173                       # Number of loads committed
system.cpu.commit.membars                           1                       # Number of memory barriers committed
system.cpu.commit.op_class_0::No_OpClass        20813      0.43%      0.43% # Class of committed instruction
system.cpu.commit.op_class_0::IntAlu          3771416     77.63%     78.06% # Class of committed instruction
system.cpu.commit.op_class_0::IntMult            2054      0.04%     78.10% # Class of committed instruction
system.cpu.commit.op_class_0::IntDiv            37985      0.78%     78.88% # Class of committed instruction
system.cpu.commit.op_class_0::FloatAdd           2996      0.06%     78.94% # Class of committed instruction
system.cpu.commit.op_class_0::FloatCmp              0      0.00%     78.94% # Class of committed instruction
system.cpu.commit.op_class_0::FloatCvt           1376      0.03%     78.97% # Class of committed instruction
system.cpu.commit.op_class_0::FloatMult             0      0.00%     78.97% # Class of committed instruction
system.cpu.commit.op_class_0::FloatMultAcc            0      0.00%     78.97% # Class of committed instruction
system.cpu.commit.op_class_0::FloatDiv              0      0.00%     78.97% # Class of committed instruction
system.cpu.commit.op_class_0::FloatMisc             0      0.00%     78.97% # Class of committed instruction
system.cpu.commit.op_class_0::FloatSqrt             0      0.00%     78.97% # Class of committed instruction
system.cpu.commit.op_class_0::SimdAdd            6346      0.13%     79.10% # Class of committed instruction
system.cpu.commit.op_class_0::SimdAddAcc            0      0.00%     79.10% # Class of committed instruction
system.cpu.commit.op_class_0::SimdAlu           11415      0.23%     79.34% # Class of committed instruction
system.cpu.commit.op_class_0::SimdCmp               0      0.00%     79.34% # Class of committed instruction
system.cpu.commit.op_class_0::SimdCvt           12434      0.26%     79.59% # Class of committed instruction
system.cpu.commit.op_class_0::SimdMisc           6715      0.14%     79.73% # Class of committed instruction
system.cpu.commit.op_class_0::SimdMult              0      0.00%     79.73% # Class of committed instruction
system.cpu.commit.op_class_0::SimdMultAcc            0      0.00%     79.73% # Class of committed instruction
system.cpu.commit.op_class_0::SimdShift          1273      0.03%     79.76% # Class of committed instruction
system.cpu.commit.op_class_0::SimdShiftAcc            0      0.00%     79.76% # Class of committed instruction
system.cpu.commit.op_class_0::SimdDiv               0      0.00%     79.76% # Class of committed instruction
system.cpu.commit.op_class_0::SimdSqrt              0      0.00%     79.76% # Class of committed instruction
system.cpu.commit.op_class_0::SimdFloatAdd            0      0.00%     79.76% # Class of committed instruction
system.cpu.commit.op_class_0::SimdFloatAlu            0      0.00%     79.76% # Class of committed instruction
system.cpu.commit.op_class_0::SimdFloatCmp            0      0.00%     79.76% # Class of committed instruction
system.cpu.commit.op_class_0::SimdFloatCvt            0      0.00%     79.76% # Class of committed instruction
system.cpu.commit.op_class_0::SimdFloatDiv            0      0.00%     79.76% # Class of committed instruction
system.cpu.commit.op_class_0::SimdFloatMisc            0      0.00%     79.76% # Class of committed instruction
system.cpu.commit.op_class_0::SimdFloatMult            0      0.00%     79.76% # Class of committed instruction
system.cpu.commit.op_class_0::SimdFloatMultAcc            0      0.00%     79.76% # Class of committed instruction
system.cpu.commit.op_class_0::SimdFloatSqrt            0      0.00%     79.76% # Class of committed instruction
system.cpu.commit.op_class_0::SimdReduceAdd            0      0.00%     79.76% # Class of committed instruction
system.cpu.commit.op_class_0::SimdReduceAlu            0      0.00%     79.76% # Class of committed instruction
system.cpu.commit.op_class_0::SimdReduceCmp            0      0.00%     79.76% # Class of committed instruction
system.cpu.commit.op_class_0::SimdFloatReduceAdd            0      0.00%     79.76% # Class of committed instruction
system.cpu.commit.op_class_0::SimdFloatReduceCmp            0      0.00%     79.76% # Class of committed instruction
system.cpu.commit.op_class_0::SimdAes               0      0.00%     79.76% # Class of committed instruction
system.cpu.commit.op_class_0::SimdAesMix            0      0.00%     79.76% # Class of committed instruction
system.cpu.commit.op_class_0::SimdSha1Hash            0      0.00%     79.76% # Class of committed instruction
system.cpu.commit.op_class_0::SimdSha1Hash2            0      0.00%     79.76% # Class of committed instruction
system.cpu.commit.op_class_0::SimdSha256Hash            0      0.00%     79.76% # Class of committed instruction
system.cpu.commit.op_class_0::SimdSha256Hash2            0      0.00%     79.76% # Class of committed instruction
system.cpu.commit.op_class_0::SimdShaSigma2            0      0.00%     79.76% # Class of committed instruction
system.cpu.commit.op_class_0::SimdShaSigma3            0      0.00%     79.76% # Class of committed instruction
system.cpu.commit.op_class_0::SimdPredAlu            0      0.00%     79.76% # Class of committed instruction
system.cpu.commit.op_class_0::MemRead          690285     14.21%     93.97% # Class of committed instruction
system.cpu.commit.op_class_0::MemWrite         260655      5.37%     99.33% # Class of committed instruction
system.cpu.commit.op_class_0::FloatMemRead        19888      0.41%     99.74% # Class of committed instruction
system.cpu.commit.op_class_0::FloatMemWrite        12499      0.26%    100.00% # Class of committed instruction
system.cpu.commit.op_class_0::IprAccess             0      0.00%    100.00% # Class of committed instruction
system.cpu.commit.op_class_0::InstPrefetch            0      0.00%    100.00% # Class of committed instruction
system.cpu.commit.op_class_0::total           4858150                       # Class of committed instruction
system.cpu.commit.refs                         983327                       # Number of memory references committed
system.cpu.commit.swp_count                         0                       # Number of s/w prefetches committed
system.cpu.commit.vec_insts                         0                       # Number of committed Vector instructions.
system.cpu.committedInsts                     2704273                       # Number of Instructions Simulated
system.cpu.committedOps                       4858150                       # Number of Ops (including micro ops) Simulated
system.cpu.cpi                               1.208178                       # CPI: Cycles Per Instruction
system.cpu.cpi_total                         1.208178                       # CPI: Total CPI of All Threads
system.cpu.dcache.prefetcher.num_hwpf_issued         8482                       # number of hwpf issued
system.cpu.dcache.prefetcher.pfBufferHit        34532                       # number of redundant prefetches already in prefetch queue
system.cpu.dcache.prefetcher.pfIdentified        50468                       # number of prefetch candidates identified
system.cpu.dcache.prefetcher.pfInCache              0                       # number of redundant prefetches already in cache/mshr dropped
system.cpu.dcache.prefetcher.pfRemovedFull            0                       # number of prefetches dropped due to prefetch queue size
system.cpu.dcache.prefetcher.pfSpanPage          4732                       # number of prefetches that crossed the page
system.cpu.decode.BlockedCycles               1035966                       # Number of cycles decode is blocked
system.cpu.decode.DecodedInsts                6057164                       # Number of instructions handled by decode
system.cpu.decode.IdleCycles                   418667                       # Number of cycles decode is idle
system.cpu.decode.RunCycles                   1523534                       # Number of cycles decode is running
system.cpu.decode.SquashCycles                  28430                       # Number of cycles decode is squashing
system.cpu.decode.UnblockCycles                 90735                       # Number of cycles decode is unblocking
system.cpu.dtb.rdAccesses                      796783                       # TLB accesses on read requests
system.cpu.dtb.rdMisses                          1879                       # TLB misses on read requests
system.cpu.dtb.wrAccesses                      294697                       # TLB accesses on write requests
system.cpu.dtb.wrMisses                           162                       # TLB misses on write requests
system.cpu.fetch.Branches                      652566                       # Number of branches that fetch encountered
system.cpu.fetch.CacheLines                    359407                       # Number of cache lines fetched
system.cpu.fetch.Cycles                       2610315                       # Number of cycles fetch has run and was not squashing or blocked
system.cpu.fetch.IcacheSquashes                  7460                       # Number of outstanding Icache misses that were squashed
system.cpu.fetch.IcacheWaitRetryStallCycles           10                       # Number of stall cycles due to full MSHR
system.cpu.fetch.Insts                        3518150                       # Number of instructions fetch has processed
system.cpu.fetch.MiscStallCycles                  345                       # Number of cycles fetch has spent waiting on interrupts, or bad addresses, or out of MSHRs
system.cpu.fetch.PendingQuiesceStallCycles            8                       # Number of stall cycles due to pending quiesce instructions
system.cpu.fetch.PendingTrapStallCycles           787                       # Number of stall cycles due to pending traps
system.cpu.fetch.SquashCycles                   56860                       # Number of cycles fetch has spent squashing
system.cpu.fetch.branchRate                  0.199730                       # Number of branch fetches per cycle
system.cpu.fetch.icacheStallCycles             457437                       # Number of cycles fetch is stalled on an Icache miss
system.cpu.fetch.predictedBranches             345169                       # Number of branches that fetch has predicted taken
system.cpu.fetch.rate                        1.076795                       # Number of inst fetches per cycle
system.cpu.fetch.rateDist::samples            3097332                       # Number of instructions fetched each cycle (Total)
system.cpu.fetch.rateDist::mean              2.046584                       # Number of instructions fetched each cycle (Total)
system.cpu.fetch.rateDist::stdev             1.913773                       # Number of instructions fetched each cycle (Total)
system.cpu.fetch.rateDist::underflows               0      0.00%      0.00% # Number of instructions fetched each cycle (Total)
system.cpu.fetch.rateDist::0                  1358939     43.87%     43.87% # Number of instructions fetched each cycle (Total)
system.cpu.fetch.rateDist::1                   105077      3.39%     47.27% # Number of instructions fetched each cycle (Total)
system.cpu.fetch.rateDist::2                    87427      2.82%     50.09% # Number of instructions fetched each cycle (Total)
system.cpu.fetch.rateDist::3                   124537      4.02%     54.11% # Number of instructions fetched each cycle (Total)
system.cpu.fetch.rateDist::4                  1421352     45.89%    100.00% # Number of instructions fetched each cycle (Total)
system.cpu.fetch.rateDist::overflows                0      0.00%    100.00% # Number of instructions fetched each cycle (Total)
system.cpu.fetch.rateDist::min_value                0                       # Number of instructions fetched each cycle (Total)
system.cpu.fetch.rateDist::max_value                4                       # Number of instructions fetched each cycle (Total)
system.cpu.fetch.rateDist::total              3097332                       # Number of instructions fetched each cycle (Total)
system.cpu.fp_regfile_reads                    122163                       # number of floating regfile reads
system.cpu.fp_regfile_writes                    67388                       # number of floating regfile writes
system.cpu.fuPool.fu_ticks_busy::IntALU(0)    282178000                       # Total ticks fu was busy
system.cpu.fuPool.fu_ticks_busy::IntALU(1)    282178000                       # Total ticks fu was busy
system.cpu.fuPool.fu_ticks_busy::IntALU(2)    282178000                       # Total ticks fu was busy
system.cpu.fuPool.fu_ticks_busy::IntALU(3)    282177600                       # Total ticks fu was busy
system.cpu.fuPool.fu_ticks_busy::IntALU(4)    282177600                       # Total ticks fu was busy
system.cpu.fuPool.fu_ticks_busy::IntALU(5)    282177600                       # Total ticks fu was busy
system.cpu.fuPool.fu_ticks_busy::IntMultDiv(0)      8826400                       # Total ticks fu was busy
system.cpu.fuPool.fu_ticks_busy::IntMultDiv(1)      8826000                       # Total ticks fu was busy
system.cpu.fuPool.fu_ticks_busy::FP_ALU(0)       610800                       # Total ticks fu was busy
system.cpu.fuPool.fu_ticks_busy::FP_ALU(1)       610400                       # Total ticks fu was busy
system.cpu.fuPool.fu_ticks_busy::FP_ALU(2)       610000                       # Total ticks fu was busy
system.cpu.fuPool.fu_ticks_busy::FP_ALU(3)       610000                       # Total ticks fu was busy
system.cpu.fuPool.fu_ticks_busy::FP_MultDiv(0)            0                       # Total ticks fu was busy
system.cpu.fuPool.fu_ticks_busy::FP_MultDiv(1)            0                       # Total ticks fu was busy
system.cpu.fuPool.fu_ticks_busy::SIMD_Unit(0)      4524800                       # Total ticks fu was busy
system.cpu.fuPool.fu_ticks_busy::SIMD_Unit(1)      4575200                       # Total ticks fu was busy
system.cpu.fuPool.fu_ticks_busy::SIMD_Unit(2)      4615200                       # Total ticks fu was busy
system.cpu.fuPool.fu_ticks_busy::SIMD_Unit(3)      4561600                       # Total ticks fu was busy
system.cpu.fuPool.fu_ticks_busy::PredALU(0)            0                       # Total ticks fu was busy
system.cpu.fuPool.fu_ticks_busy::RdWrPort(0)    110860400                       # Total ticks fu was busy
system.cpu.fuPool.fu_ticks_busy::RdWrPort(1)    110863200                       # Total ticks fu was busy
system.cpu.fuPool.fu_ticks_busy::RdWrPort(2)    110874800                       # Total ticks fu was busy
system.cpu.fuPool.fu_ticks_busy::RdWrPort(3)    110920000                       # Total ticks fu was busy
system.cpu.fuPool.fu_ticks_busy::IprPort(0)            0                       # Total ticks fu was busy
system.cpu.fuPool.fu_ticks_busy::total     2174955600                       # Total ticks fu was busy
system.cpu.icache.prefetcher.num_hwpf_issued            0                       # number of hwpf issued
system.cpu.icache.prefetcher.pfBufferHit            0                       # number of redundant prefetches already in prefetch queue
system.cpu.icache.prefetcher.pfIdentified            0                       # number of prefetch candidates identified
system.cpu.icache.prefetcher.pfInCache              0                       # number of redundant prefetches already in cache/mshr dropped
system.cpu.icache.prefetcher.pfRemovedFull            0                       # number of prefetches dropped due to prefetch queue size
system.cpu.icache.prefetcher.pfSpanPage             0                       # number of prefetches that crossed the page
system.cpu.idleCycles                          169911                       # Total number of cycles that the CPU has spent unscheduled due to idling
system.cpu.iew.branchMispredicts                32796                       # Number of branch mispredicts detected at execute
system.cpu.iew.exec_branches                   530558                       # Number of branches executed
system.cpu.iew.exec_nop                             0                       # number of nop insts executed
system.cpu.iew.exec_rate                     1.659082                       # Inst execution rate
system.cpu.iew.exec_refs                      1093212                       # number of memory reference insts executed
system.cpu.iew.exec_stores                     294682                       # Number of stores executed
system.cpu.iew.exec_swp                             0                       # number of swp insts executed
system.cpu.iew.iewBlockCycles                  710853                       # Number of cycles IEW is blocking
system.cpu.iew.iewDispLoadInsts                837377                       # Number of dispatched load instructions
system.cpu.iew.iewDispNonSpecInsts               2434                       # Number of dispatched non-speculative instructions
system.cpu.iew.iewDispSquashedInsts               563                       # Number of squashed instructions skipped by dispatch
system.cpu.iew.iewDispStoreInsts               311814                       # Number of dispatched store instructions
system.cpu.iew.iewDispatchedInsts             5814563                       # Number of instructions dispatched to IQ
system.cpu.iew.iewExecLoadInsts                798530                       # Number of load instructions executed
system.cpu.iew.iewExecSquashedInsts             43476                       # Number of squashed instructions skipped in execute
system.cpu.iew.iewExecutedInsts               5420624                       # Number of executed instructions
system.cpu.iew.iewIQFullEvents                   3388                       # Number of times the IQ has become full, causing a stall
system.cpu.iew.iewIdleCycles                        0                       # Number of cycles IEW is idle
system.cpu.iew.iewLSQFullEvents                  8904                       # Number of times the LSQ has become full, causing a stall
system.cpu.iew.iewSquashCycles                  28430                       # Number of cycles IEW is squashing
system.cpu.iew.iewUnblockCycles                 15211                       # Number of cycles IEW is unblocking
system.cpu.iew.lsq.thread0.blockedLoads             0                       # Number of blocked loads due to partial load-store forwarding
system.cpu.iew.lsq.thread0.cacheBlocked           597                       # Number of times an access to memory failed due to the cache being blocked
system.cpu.iew.lsq.thread0.forwLoads            45468                       # Number of loads that had data forwarded from stores
system.cpu.iew.lsq.thread0.ignoredResponses          378                       # Number of memory responses ignored because the instruction is squashed
system.cpu.iew.lsq.thread0.invAddrLoads             0                       # Number of loads ignored due to an invalid address
system.cpu.iew.lsq.thread0.invAddrSwpfs             0                       # Number of software prefetches ignored due to an invalid address
system.cpu.iew.lsq.thread0.memOrderViolation           79                       # Number of memory ordering violations
system.cpu.iew.lsq.thread0.rescheduledLoads            0                       # Number of loads that were rescheduled
system.cpu.iew.lsq.thread0.squashedLoads       127202                       # Number of loads squashed
system.cpu.iew.lsq.thread0.squashedStores        38659                       # Number of stores squashed
system.cpu.iew.memOrderViolationEvents             79                       # Number of memory order violations
system.cpu.iew.predictedNotTakenIncorrect        24477                       # Number of branches that were predicted not taken incorrectly
system.cpu.iew.predictedTakenIncorrect           8319                       # Number of branches that were predicted taken incorrectly
system.cpu.iew.wb_consumers                   7051479                       # num instructions consuming a value
system.cpu.iew.wb_count                       5395886                       # cumulative count of insts written-back
system.cpu.iew.wb_fanout                     0.585667                       # average fanout of values written-back
system.cpu.iew.wb_producers                   4129816                       # num instructions producing a value
system.cpu.iew.wb_rate                       1.651510                       # insts written-back per cycle
system.cpu.iew.wb_sent                        5403995                       # cumulative count of insts sent to commit
system.cpu.int_regfile_reads                  8400636                       # number of integer regfile reads
system.cpu.int_regfile_writes                 4582224                       # number of integer regfile writes
system.cpu.ipc                               0.827693                       # IPC: Instructions Per Cycle
system.cpu.ipc_total                         0.827693                       # IPC: Total IPC of All Threads
system.cpu.iq.FU_type_0::No_OpClass             26711      0.49%      0.49% # Type of FU issued
system.cpu.iq.FU_type_0::IntAlu               4232668     77.46%     77.95% # Type of FU issued
system.cpu.iq.FU_type_0::IntMult                 2079      0.04%     77.99% # Type of FU issued
system.cpu.iq.FU_type_0::IntDiv                 42052      0.77%     78.76% # Type of FU issued
system.cpu.iq.FU_type_0::FloatAdd                4673      0.09%     78.85% # Type of FU issued
system.cpu.iq.FU_type_0::FloatCmp                   0      0.00%     78.85% # Type of FU issued
system.cpu.iq.FU_type_0::FloatCvt                1430      0.03%     78.87% # Type of FU issued
system.cpu.iq.FU_type_0::FloatMult                  0      0.00%     78.87% # Type of FU issued
system.cpu.iq.FU_type_0::FloatMultAcc               0      0.00%     78.87% # Type of FU issued
system.cpu.iq.FU_type_0::FloatDiv                   0      0.00%     78.87% # Type of FU issued
system.cpu.iq.FU_type_0::FloatMisc                  0      0.00%     78.87% # Type of FU issued
system.cpu.iq.FU_type_0::FloatSqrt                  0      0.00%     78.87% # Type of FU issued
system.cpu.iq.FU_type_0::SimdAdd                 6914      0.13%     79.00% # Type of FU issued
system.cpu.iq.FU_type_0::SimdAddAcc                 0      0.00%     79.00% # Type of FU issued
system.cpu.iq.FU_type_0::SimdAlu                15076      0.28%     79.27% # Type of FU issued
system.cpu.iq.FU_type_0::SimdCmp                    0      0.00%     79.27% # Type of FU issued
system.cpu.iq.FU_type_0::SimdCvt                14041      0.26%     79.53% # Type of FU issued
system.cpu.iq.FU_type_0::SimdMisc                7232      0.13%     79.66% # Type of FU issued
system.cpu.iq.FU_type_0::SimdMult                   0      0.00%     79.66% # Type of FU issued
system.cpu.iq.FU_type_0::SimdMultAcc                0      0.00%     79.66% # Type of FU issued
system.cpu.iq.FU_type_0::SimdShift               2429      0.04%     79.71% # Type of FU issued
system.cpu.iq.FU_type_0::SimdShiftAcc               0      0.00%     79.71% # Type of FU issued
system.cpu.iq.FU_type_0::SimdDiv                    0      0.00%     79.71% # Type of FU issued
system.cpu.iq.FU_type_0::SimdSqrt                   0      0.00%     79.71% # Type of FU issued
system.cpu.iq.FU_type_0::SimdFloatAdd               0      0.00%     79.71% # Type of FU issued
system.cpu.iq.FU_type_0::SimdFloatAlu               0      0.00%     79.71% # Type of FU issued
system.cpu.iq.FU_type_0::SimdFloatCmp               0      0.00%     79.71% # Type of FU issued
system.cpu.iq.FU_type_0::SimdFloatCvt               0      0.00%     79.71% # Type of FU issued
system.cpu.iq.FU_type_0::SimdFloatDiv               0      0.00%     79.71% # Type of FU issued
system.cpu.iq.FU_type_0::SimdFloatMisc              0      0.00%     79.71% # Type of FU issued
system.cpu.iq.FU_type_0::SimdFloatMult              0      0.00%     79.71% # Type of FU issued
system.cpu.iq.FU_type_0::SimdFloatMultAcc            0      0.00%     79.71% # Type of FU issued
system.cpu.iq.FU_type_0::SimdFloatSqrt              0      0.00%     79.71% # Type of FU issued
system.cpu.iq.FU_type_0::SimdReduceAdd              0      0.00%     79.71% # Type of FU issued
system.cpu.iq.FU_type_0::SimdReduceAlu              0      0.00%     79.71% # Type of FU issued
system.cpu.iq.FU_type_0::SimdReduceCmp              0      0.00%     79.71% # Type of FU issued
system.cpu.iq.FU_type_0::SimdFloatReduceAdd            0      0.00%     79.71% # Type of FU issued
system.cpu.iq.FU_type_0::SimdFloatReduceCmp            0      0.00%     79.71% # Type of FU issued
system.cpu.iq.FU_type_0::SimdAes                    0      0.00%     79.71% # Type of FU issued
system.cpu.iq.FU_type_0::SimdAesMix                 0      0.00%     79.71% # Type of FU issued
system.cpu.iq.FU_type_0::SimdSha1Hash               0      0.00%     79.71% # Type of FU issued
system.cpu.iq.FU_type_0::SimdSha1Hash2              0      0.00%     79.71% # Type of FU issued
system.cpu.iq.FU_type_0::SimdSha256Hash             0      0.00%     79.71% # Type of FU issued
system.cpu.iq.FU_type_0::SimdSha256Hash2            0      0.00%     79.71% # Type of FU issued
system.cpu.iq.FU_type_0::SimdShaSigma2              0      0.00%     79.71% # Type of FU issued
system.cpu.iq.FU_type_0::SimdShaSigma3              0      0.00%     79.71% # Type of FU issued
system.cpu.iq.FU_type_0::SimdPredAlu                0      0.00%     79.71% # Type of FU issued
system.cpu.iq.FU_type_0::MemRead               784280     14.35%     94.06% # Type of FU issued
system.cpu.iq.FU_type_0::MemWrite              284957      5.22%     99.28% # Type of FU issued
system.cpu.iq.FU_type_0::FloatMemRead           25833      0.47%     99.75% # Type of FU issued
system.cpu.iq.FU_type_0::FloatMemWrite          13728      0.25%    100.00% # Type of FU issued
system.cpu.iq.FU_type_0::IprAccess                  0      0.00%    100.00% # Type of FU issued
system.cpu.iq.FU_type_0::InstPrefetch               0      0.00%    100.00% # Type of FU issued
system.cpu.iq.FU_type_0::total                5464103                       # Type of FU issued
system.cpu.iq.fp_alu_accesses                   92422                       # Number of floating point alu accesses
system.cpu.iq.fp_inst_queue_reads              186171                       # Number of floating instruction queue reads
system.cpu.iq.fp_inst_queue_wakeup_accesses        88707                       # Number of floating instruction queue wakeup accesses
system.cpu.iq.fp_inst_queue_writes             134563                       # Number of floating instruction queue writes
system.cpu.iq.fu_busy_cnt                           0                       # FU busy when requested
system.cpu.iq.fu_busy_rate                          0                       # FU busy rate (busy events/executed inst)
system.cpu.iq.fu_full::No_OpClass                   0                       # attempts to use FU when none available
system.cpu.iq.fu_full::IntAlu                       0                       # attempts to use FU when none available
system.cpu.iq.fu_full::IntMult                      0                       # attempts to use FU when none available
system.cpu.iq.fu_full::IntDiv                       0                       # attempts to use FU when none available
system.cpu.iq.fu_full::FloatAdd                     0                       # attempts to use FU when none available
system.cpu.iq.fu_full::FloatCmp                     0                       # attempts to use FU when none available
system.cpu.iq.fu_full::FloatCvt                     0                       # attempts to use FU when none available
system.cpu.iq.fu_full::FloatMult                    0                       # attempts to use FU when none available
system.cpu.iq.fu_full::FloatMultAcc                 0                       # attempts to use FU when none available
system.cpu.iq.fu_full::FloatDiv                     0                       # attempts to use FU when none available
system.cpu.iq.fu_full::FloatMisc                    0                       # attempts to use FU when none available
system.cpu.iq.fu_full::FloatSqrt                    0                       # attempts to use FU when none available
system.cpu.iq.fu_full::SimdAdd                      0                       # attempts to use FU when none available
system.cpu.iq.fu_full::SimdAddAcc                   0                       # attempts to use FU when none available
system.cpu.iq.fu_full::SimdAlu                      0                       # attempts to use FU when none available
system.cpu.iq.fu_full::SimdCmp                      0                       # attempts to use FU when none available
system.cpu.iq.fu_full::SimdCvt                      0                       # attempts to use FU when none available
system.cpu.iq.fu_full::SimdMisc                     0                       # attempts to use FU when none available
system.cpu.iq.fu_full::SimdMult                     0                       # attempts to use FU when none available
system.cpu.iq.fu_full::SimdMultAcc                  0                       # attempts to use FU when none available
system.cpu.iq.fu_full::SimdShift                    0                       # attempts to use FU when none available
system.cpu.iq.fu_full::SimdShiftAcc                 0                       # attempts to use FU when none available
system.cpu.iq.fu_full::SimdDiv                      0                       # attempts to use FU when none available
system.cpu.iq.fu_full::SimdSqrt                     0                       # attempts to use FU when none available
system.cpu.iq.fu_full::SimdFloatAdd                 0                       # attempts to use FU when none available
system.cpu.iq.fu_full::SimdFloatAlu                 0                       # attempts to use FU when none available
system.cpu.iq.fu_full::SimdFloatCmp                 0                       # attempts to use FU when none available
system.cpu.iq.fu_full::SimdFloatCvt                 0                       # attempts to use FU when none available
system.cpu.iq.fu_full::SimdFloatDiv                 0                       # attempts to use FU when none available
system.cpu.iq.fu_full::SimdFloatMisc                0                       # attempts to use FU when none available
system.cpu.iq.fu_full::SimdFloatMult                0                       # attempts to use FU when none available
system.cpu.iq.fu_full::SimdFloatMultAcc             0                       # attempts to use FU when none available
system.cpu.iq.fu_full::SimdFloatSqrt                0                       # attempts to use FU when none available
system.cpu.iq.fu_full::SimdReduceAdd                0                       # attempts to use FU when none available
system.cpu.iq.fu_full::SimdReduceAlu                0                       # attempts to use FU when none available
system.cpu.iq.fu_full::SimdReduceCmp                0                       # attempts to use FU when none available
system.cpu.iq.fu_full::SimdFloatReduceAdd            0                       # attempts to use FU when none available
system.cpu.iq.fu_full::SimdFloatReduceCmp            0                       # attempts to use FU when none available
system.cpu.iq.fu_full::SimdAes                      0                       # attempts to use FU when none available
system.cpu.iq.fu_full::SimdAesMix                   0                       # attempts to use FU when none available
system.cpu.iq.fu_full::SimdSha1Hash                 0                       # attempts to use FU when none available
system.cpu.iq.fu_full::SimdSha1Hash2                0                       # attempts to use FU when none available
system.cpu.iq.fu_full::SimdSha256Hash               0                       # attempts to use FU when none available
system.cpu.iq.fu_full::SimdSha256Hash2              0                       # attempts to use FU when none available
system.cpu.iq.fu_full::SimdShaSigma2                0                       # attempts to use FU when none available
system.cpu.iq.fu_full::SimdShaSigma3                0                       # attempts to use FU when none available
system.cpu.iq.fu_full::SimdPredAlu                  0                       # attempts to use FU when none available
system.cpu.iq.fu_full::MemRead                      0                       # attempts to use FU when none available
system.cpu.iq.fu_full::MemWrite                     0                       # attempts to use FU when none available
system.cpu.iq.fu_full::FloatMemRead                 0                       # attempts to use FU when none available
system.cpu.iq.fu_full::FloatMemWrite                0                       # attempts to use FU when none available
system.cpu.iq.fu_full::IprAccess                    0                       # attempts to use FU when none available
system.cpu.iq.fu_full::InstPrefetch                 0                       # attempts to use FU when none available
system.cpu.iq.int_alu_accesses                5344970                       # Number of integer alu accesses
system.cpu.iq.int_inst_queue_reads           13857304                       # Number of integer instruction queue reads
system.cpu.iq.int_inst_queue_wakeup_accesses      5307179                       # Number of integer instruction queue wakeup accesses
system.cpu.iq.int_inst_queue_writes           6636481                       # Number of integer instruction queue writes
system.cpu.iq.iqInstsAdded                    5809238                       # Number of instructions added to the IQ (excludes non-spec)
system.cpu.iq.iqInstsIssued                   5464103                       # Number of instructions issued
system.cpu.iq.iqNonSpecInstsAdded                5325                       # Number of non-speculative instructions added to the IQ
system.cpu.iq.iqSquashedInstsExamined          956402                       # Number of squashed instructions iterated over during squash; mainly for profiling
system.cpu.iq.iqSquashedInstsIssued             17940                       # Number of squashed instructions issued
system.cpu.iq.iqSquashedNonSpecRemoved           4448                       # Number of squashed non-spec instructions that were removed
system.cpu.iq.iqSquashedOperandsExamined      1441290                       # Number of squashed operands that are examined and possibly removed from graph
system.cpu.iq.issued_per_cycle::samples       3097332                       # Number of insts issued each cycle
system.cpu.iq.issued_per_cycle::mean         1.764132                       # Number of insts issued each cycle
system.cpu.iq.issued_per_cycle::stdev        1.659511                       # Number of insts issued each cycle
system.cpu.iq.issued_per_cycle::underflows            0      0.00%      0.00% # Number of insts issued each cycle
system.cpu.iq.issued_per_cycle::0             1236169     39.91%     39.91% # Number of insts issued each cycle
system.cpu.iq.issued_per_cycle::1              242499      7.83%     47.74% # Number of insts issued each cycle
system.cpu.iq.issued_per_cycle::2              399807     12.91%     60.65% # Number of insts issued each cycle
system.cpu.iq.issued_per_cycle::3              453438     14.64%     75.29% # Number of insts issued each cycle
system.cpu.iq.issued_per_cycle::4              765419     24.71%    100.00% # Number of insts issued each cycle
system.cpu.iq.issued_per_cycle::overflows            0      0.00%    100.00% # Number of insts issued each cycle
system.cpu.iq.issued_per_cycle::min_value            0                       # Number of insts issued each cycle
system.cpu.iq.issued_per_cycle::max_value            4                       # Number of insts issued each cycle
system.cpu.iq.issued_per_cycle::total         3097332                       # Number of insts issued each cycle
system.cpu.iq.rate                           1.672390                       # Inst issue rate
system.cpu.iq.vec_alu_accesses                      0                       # Number of vector alu accesses
system.cpu.iq.vec_inst_queue_reads                  0                       # Number of vector instruction queue reads
system.cpu.iq.vec_inst_queue_wakeup_accesses            0                       # Number of vector instruction queue wakeup accesses
system.cpu.iq.vec_inst_queue_writes                 0                       # Number of vector instruction queue writes
system.cpu.itb.rdAccesses                           0                       # TLB accesses on read requests
system.cpu.itb.rdMisses                             0                       # TLB misses on read requests
system.cpu.itb.wrAccesses                      359539                       # TLB accesses on write requests
system.cpu.itb.wrMisses                           394                       # TLB misses on write requests
system.cpu.memDep0.conflictingLoads             13194                       # Number of conflicting loads.
system.cpu.memDep0.conflictingStores             8257                       # Number of conflicting stores.
system.cpu.memDep0.insertedLoads               837377                       # Number of loads inserted to the mem dependence unit.
system.cpu.memDep0.insertedStores              311814                       # Number of stores inserted to the mem dependence unit.
system.cpu.misc_regfile_reads                 2188447                       # number of misc regfile reads
system.cpu.misc_regfile_writes                    774                       # number of misc regfile writes
system.cpu.numCycles                          3267243                       # number of cpu cycles simulated
system.cpu.numWorkItemsCompleted                    0                       # number of work items this cpu completed
system.cpu.numWorkItemsStarted                      0                       # number of work items this cpu started
system.cpu.process.numSyscalls                    102                       # Number of system calls
system.cpu.rename.BlockCycles                  852957                       # Number of cycles rename is blocking
system.cpu.rename.CommittedMaps               6214901                       # Number of HB maps that are committed
system.cpu.rename.FullRegisterEvents               28                       # Number of times there has been no free registers
system.cpu.rename.IQFullEvents                  43623                       # Number of times rename has blocked due to IQ full
system.cpu.rename.IdleCycles                   470375                       # Number of cycles rename is idle
system.cpu.rename.LQFullEvents                  14820                       # Number of times rename has blocked due to LQ full
system.cpu.rename.ROBFullEvents                  4683                       # Number of times rename has blocked due to ROB full
system.cpu.rename.RenameLookups              15462404                       # Number of register rename lookups that rename has made
system.cpu.rename.RenamedInsts                5972316                       # Number of instructions processed by rename
system.cpu.rename.RenamedOperands             7687750                       # Number of destination operands rename has renamed
system.cpu.rename.RunCycles                   1554266                       # Number of cycles rename is running
system.cpu.rename.SQFullEvents                  73769                       # Number of times rename has blocked due to SQ full
system.cpu.rename.SquashCycles                  28430                       # Number of cycles rename is squashing
system.cpu.rename.UnblockCycles                168841                       # Number of cycles rename is unblocking
system.cpu.rename.UndoneMaps                  1472826                       # Number of HB maps that are undone due to squashing
system.cpu.rename.fp_rename_lookups            158696                       # Number of floating rename lookups
system.cpu.rename.int_rename_lookups          9442136                       # Number of integer rename lookups
system.cpu.rename.serializeStallCycles          22463                       # count of cycles rename stalled for serializing inst
system.cpu.rename.serializingInsts               1024                       # count of serializing insts renamed
system.cpu.rename.skidInsts                    200518                       # count of insts added to the skid buffer
system.cpu.rename.tempSerializingInsts           1082                       # count of temporary serializing insts renamed
system.cpu.rob.rob_reads                      7818123                       # The number of ROB reads
system.cpu.rob.rob_writes                    11891492                       # The number of ROB writes
system.cpu.timesIdled                            1789                       # Number of times that the entire CPU went into an idle state and unscheduled itself
system.l2bus.snoop_filter.hit_multi_requests           26                       # Number of requests hitting in the snoop filter with multiple (>1) holders of the requested data.
system.l2bus.snoop_filter.hit_multi_snoops            0                       # Number of snoops hitting in the snoop filter with multiple (>1) holders of the requested data.
system.l2bus.snoop_filter.hit_single_requests        19084                       # Number of requests hitting in the snoop filter with a single holder of the requested data.
system.l2bus.snoop_filter.hit_single_snoops          432                       # Number of snoops hitting in the snoop filter with a single holder of the requested data.
system.l2bus.snoop_filter.tot_requests          39426                       # Total number of requests made to the snoop filter.
system.l2bus.snoop_filter.tot_snoops              432                       # Total number of snoops made to the snoop filter.
system.l2cache.prefetcher.num_hwpf_issued          662                       # number of hwpf issued
system.l2cache.prefetcher.pfBufferHit               0                       # number of redundant prefetches already in prefetch queue
system.l2cache.prefetcher.pfIdentified            662                       # number of prefetch candidates identified
system.l2cache.prefetcher.pfInCache                 0                       # number of redundant prefetches already in cache/mshr dropped
system.l2cache.prefetcher.pfRemovedFull             0                       # number of prefetches dropped due to prefetch queue size
system.l2cache.prefetcher.pfSpanPage              106                       # number of prefetches that crossed the page
system.membus.snoop_filter.hit_multi_requests            0                       # Number of requests hitting in the snoop filter with multiple (>1) holders of the requested data.
system.membus.snoop_filter.hit_multi_snoops            0                       # Number of snoops hitting in the snoop filter with multiple (>1) holders of the requested data.
system.membus.snoop_filter.hit_single_requests         9547                       # Number of requests hitting in the snoop filter with a single holder of the requested data.
system.membus.snoop_filter.hit_single_snoops            0                       # Number of snoops hitting in the snoop filter with a single holder of the requested data.
system.membus.snoop_filter.tot_requests         23218                       # Total number of requests made to the snoop filter.
system.membus.snoop_filter.tot_snoops               0                       # Total number of snoops made to the snoop filter.
system.membus.pwrStateResidencyTicks::UNDEFINED   1306896800                       # Cumulative time (in ticks) in various power states
system.membus.trans_dist::ReadResp              12357                       # Transaction distribution
system.membus.trans_dist::WritebackDirty         1351                       # Transaction distribution
system.membus.trans_dist::CleanEvict             8196                       # Transaction distribution
system.membus.trans_dist::ReadExReq              1314                       # Transaction distribution
system.membus.trans_dist::ReadExResp             1314                       # Transaction distribution
system.membus.trans_dist::ReadSharedReq         12357                       # Transaction distribution
system.membus.pkt_count_system.l2cache.mem_side::system.mem_ctrl.port        36889                       # Packet count per connected master and slave (bytes)
system.membus.pkt_count_system.l2cache.mem_side::total        36889                       # Packet count per connected master and slave (bytes)
system.membus.pkt_count::total                  36889                       # Packet count per connected master and slave (bytes)
system.membus.pkt_size_system.l2cache.mem_side::system.mem_ctrl.port       961408                       # Cumulative packet size per connected master and slave (bytes)
system.membus.pkt_size_system.l2cache.mem_side::total       961408                       # Cumulative packet size per connected master and slave (bytes)
system.membus.pkt_size::total                  961408                       # Cumulative packet size per connected master and slave (bytes)
system.membus.snoops                                0                       # Total snoops (count)
system.membus.snoopTraffic                          0                       # Total snoop traffic (bytes)
system.membus.snoop_fanout::samples             13671                       # Request fanout histogram
system.membus.snoop_fanout::mean                    0                       # Request fanout histogram
system.membus.snoop_fanout::stdev                   0                       # Request fanout histogram
system.membus.snoop_fanout::underflows              0      0.00%      0.00% # Request fanout histogram
system.membus.snoop_fanout::0                   13671    100.00%    100.00% # Request fanout histogram
system.membus.snoop_fanout::1                       0      0.00%    100.00% # Request fanout histogram
system.membus.snoop_fanout::overflows               0      0.00%    100.00% # Request fanout histogram
system.membus.snoop_fanout::min_value               0                       # Request fanout histogram
system.membus.snoop_fanout::max_value               0                       # Request fanout histogram
system.membus.snoop_fanout::total               13671                       # Request fanout histogram
system.membus.reqLayer2.occupancy            11473135                       # Layer occupancy (ticks)
system.membus.reqLayer2.utilization               0.9                       # Layer utilization (%)
system.membus.respLayer0.occupancy           29694165                       # Layer occupancy (ticks)
system.membus.respLayer0.utilization              2.3                       # Layer utilization (%)
system.l2bus.pwrStateResidencyTicks::UNDEFINED   1306896800                       # Cumulative time (in ticks) in various power states
system.l2bus.trans_dist::ReadResp               18304                       # Transaction distribution
system.l2bus.trans_dist::WritebackDirty          4160                       # Transaction distribution
system.l2bus.trans_dist::CleanEvict             24545                       # Transaction distribution
system.l2bus.trans_dist::HardPFReq                947                       # Transaction distribution
system.l2bus.trans_dist::ReadExReq               2049                       # Transaction distribution
system.l2bus.trans_dist::ReadExResp              2049                       # Transaction distribution
system.l2bus.trans_dist::ReadSharedReq          18304                       # Transaction distribution
system.l2bus.pkt_count_system.cpu.icache.mem_side::system.l2cache.cpu_side         9292                       # Packet count per connected master and slave (bytes)
system.l2bus.pkt_count_system.cpu.dcache.mem_side::system.l2cache.cpu_side        50486                       # Packet count per connected master and slave (bytes)
system.l2bus.pkt_count::total                   59778                       # Packet count per connected master and slave (bytes)
system.l2bus.pkt_size_system.cpu.icache.mem_side::system.l2cache.cpu_side       203648                       # Cumulative packet size per connected master and slave (bytes)
system.l2bus.pkt_size_system.cpu.dcache.mem_side::system.l2cache.cpu_side      1278656                       # Cumulative packet size per connected master and slave (bytes)
system.l2bus.pkt_size::total                  1482304                       # Cumulative packet size per connected master and slave (bytes)
system.l2bus.snoops                             10580                       # Total snoops (count)
system.l2bus.snoopTraffic                       86528                       # Total snoop traffic (bytes)
system.l2bus.snoop_fanout::samples              30932                       # Request fanout histogram
system.l2bus.snoop_fanout::mean              0.015162                       # Request fanout histogram
system.l2bus.snoop_fanout::stdev             0.122200                       # Request fanout histogram
system.l2bus.snoop_fanout::underflows               0      0.00%      0.00% # Request fanout histogram
system.l2bus.snoop_fanout::0                    30463     98.48%     98.48% # Request fanout histogram
system.l2bus.snoop_fanout::1                      469      1.52%    100.00% # Request fanout histogram
system.l2bus.snoop_fanout::2                        0      0.00%    100.00% # Request fanout histogram
system.l2bus.snoop_fanout::overflows                0      0.00%    100.00% # Request fanout histogram
system.l2bus.snoop_fanout::min_value                0                       # Request fanout histogram
system.l2bus.snoop_fanout::max_value                1                       # Request fanout histogram
system.l2bus.snoop_fanout::total                30932                       # Request fanout histogram
system.l2bus.respLayer1.occupancy            20605197                       # Layer occupancy (ticks)
system.l2bus.respLayer1.utilization               1.6                       # Layer utilization (%)
system.l2bus.reqLayer0.occupancy             19521617                       # Layer occupancy (ticks)
system.l2bus.reqLayer0.utilization                1.5                       # Layer utilization (%)
system.l2bus.respLayer0.occupancy             3820398                       # Layer occupancy (ticks)
system.l2bus.respLayer0.utilization               0.3                       # Layer utilization (%)
system.clk_domain.clock                           400                       # Clock period in ticks
system.clk_domain.voltage_domain.voltage            1                       # Voltage in Volts
system.cpu.pwrStateResidencyTicks::ON      1306896800                       # Cumulative time (in ticks) in various power states
system.cpu.icache.pwrStateResidencyTicks::UNDEFINED   1306896800                       # Cumulative time (in ticks) in various power states
system.cpu.icache.demand_hits::.cpu.inst       355487                       # number of demand (read+write) hits
system.cpu.icache.demand_hits::total           355487                       # number of demand (read+write) hits
system.cpu.icache.overall_hits::.cpu.inst       355487                       # number of overall hits
system.cpu.icache.overall_hits::total          355487                       # number of overall hits
system.cpu.icache.demand_misses::.cpu.inst         3918                       # number of demand (read+write) misses
system.cpu.icache.demand_misses::total           3918                       # number of demand (read+write) misses
system.cpu.icache.overall_misses::.cpu.inst         3918                       # number of overall misses
system.cpu.icache.overall_misses::total          3918                       # number of overall misses
system.cpu.icache.demand_miss_latency::.cpu.inst    186350400                       # number of demand (read+write) miss cycles
system.cpu.icache.demand_miss_latency::total    186350400                       # number of demand (read+write) miss cycles
system.cpu.icache.overall_miss_latency::.cpu.inst    186350400                       # number of overall miss cycles
system.cpu.icache.overall_miss_latency::total    186350400                       # number of overall miss cycles
system.cpu.icache.demand_accesses::.cpu.inst       359405                       # number of demand (read+write) accesses
system.cpu.icache.demand_accesses::total       359405                       # number of demand (read+write) accesses
system.cpu.icache.overall_accesses::.cpu.inst       359405                       # number of overall (read+write) accesses
system.cpu.icache.overall_accesses::total       359405                       # number of overall (read+write) accesses
system.cpu.icache.demand_miss_rate::.cpu.inst     0.010901                       # miss rate for demand accesses
system.cpu.icache.demand_miss_rate::total     0.010901                       # miss rate for demand accesses
system.cpu.icache.overall_miss_rate::.cpu.inst     0.010901                       # miss rate for overall accesses
system.cpu.icache.overall_miss_rate::total     0.010901                       # miss rate for overall accesses
system.cpu.icache.demand_avg_miss_latency::.cpu.inst 47562.633997                       # average overall miss latency
system.cpu.icache.demand_avg_miss_latency::total 47562.633997                       # average overall miss latency
system.cpu.icache.overall_avg_miss_latency::.cpu.inst 47562.633997                       # average overall miss latency
system.cpu.icache.overall_avg_miss_latency::total 47562.633997                       # average overall miss latency
system.cpu.icache.blocked_cycles::no_mshrs          458                       # number of cycles access was blocked
system.cpu.icache.blocked_cycles::no_targets            0                       # number of cycles access was blocked
system.cpu.icache.blocked::no_mshrs                 6                       # number of cycles access was blocked
system.cpu.icache.blocked::no_targets               0                       # number of cycles access was blocked
system.cpu.icache.avg_blocked_cycles::no_mshrs    76.333333                       # average number of cycles each access was blocked
system.cpu.icache.avg_blocked_cycles::no_targets          nan                       # average number of cycles each access was blocked
system.cpu.icache.demand_mshr_hits::.cpu.inst          735                       # number of demand (read+write) MSHR hits
system.cpu.icache.demand_mshr_hits::total          735                       # number of demand (read+write) MSHR hits
system.cpu.icache.overall_mshr_hits::.cpu.inst          735                       # number of overall MSHR hits
system.cpu.icache.overall_mshr_hits::total          735                       # number of overall MSHR hits
system.cpu.icache.demand_mshr_misses::.cpu.inst         3183                       # number of demand (read+write) MSHR misses
system.cpu.icache.demand_mshr_misses::total         3183                       # number of demand (read+write) MSHR misses
system.cpu.icache.overall_mshr_misses::.cpu.inst         3183                       # number of overall MSHR misses
system.cpu.icache.overall_mshr_misses::total         3183                       # number of overall MSHR misses
system.cpu.icache.demand_mshr_miss_latency::.cpu.inst    151030000                       # number of demand (read+write) MSHR miss cycles
system.cpu.icache.demand_mshr_miss_latency::total    151030000                       # number of demand (read+write) MSHR miss cycles
system.cpu.icache.overall_mshr_miss_latency::.cpu.inst    151030000                       # number of overall MSHR miss cycles
system.cpu.icache.overall_mshr_miss_latency::total    151030000                       # number of overall MSHR miss cycles
system.cpu.icache.demand_mshr_miss_rate::.cpu.inst     0.008856                       # mshr miss rate for demand accesses
system.cpu.icache.demand_mshr_miss_rate::total     0.008856                       # mshr miss rate for demand accesses
system.cpu.icache.overall_mshr_miss_rate::.cpu.inst     0.008856                       # mshr miss rate for overall accesses
system.cpu.icache.overall_mshr_miss_rate::total     0.008856                       # mshr miss rate for overall accesses
system.cpu.icache.demand_avg_mshr_miss_latency::.cpu.inst 47448.947534                       # average overall mshr miss latency
system.cpu.icache.demand_avg_mshr_miss_latency::total 47448.947534                       # average overall mshr miss latency
system.cpu.icache.overall_avg_mshr_miss_latency::.cpu.inst 47448.947534                       # average overall mshr miss latency
system.cpu.icache.overall_avg_mshr_miss_latency::total 47448.947534                       # average overall mshr miss latency
system.cpu.icache.replacements                   2927                       # number of replacements
system.cpu.icache.ReadReq_hits::.cpu.inst       355487                       # number of ReadReq hits
system.cpu.icache.ReadReq_hits::total          355487                       # number of ReadReq hits
system.cpu.icache.ReadReq_misses::.cpu.inst         3918                       # number of ReadReq misses
system.cpu.icache.ReadReq_misses::total          3918                       # number of ReadReq misses
system.cpu.icache.ReadReq_miss_latency::.cpu.inst    186350400                       # number of ReadReq miss cycles
system.cpu.icache.ReadReq_miss_latency::total    186350400                       # number of ReadReq miss cycles
system.cpu.icache.ReadReq_accesses::.cpu.inst       359405                       # number of ReadReq accesses(hits+misses)
system.cpu.icache.ReadReq_accesses::total       359405                       # number of ReadReq accesses(hits+misses)
system.cpu.icache.ReadReq_miss_rate::.cpu.inst     0.010901                       # miss rate for ReadReq accesses
system.cpu.icache.ReadReq_miss_rate::total     0.010901                       # miss rate for ReadReq accesses
system.cpu.icache.ReadReq_avg_miss_latency::.cpu.inst 47562.633997                       # average ReadReq miss latency
system.cpu.icache.ReadReq_avg_miss_latency::total 47562.633997                       # average ReadReq miss latency
system.cpu.icache.ReadReq_mshr_hits::.cpu.inst          735                       # number of ReadReq MSHR hits
system.cpu.icache.ReadReq_mshr_hits::total          735                       # number of ReadReq MSHR hits
system.cpu.icache.ReadReq_mshr_misses::.cpu.inst         3183                       # number of ReadReq MSHR misses
system.cpu.icache.ReadReq_mshr_misses::total         3183                       # number of ReadReq MSHR misses
system.cpu.icache.ReadReq_mshr_miss_latency::.cpu.inst    151030000                       # number of ReadReq MSHR miss cycles
system.cpu.icache.ReadReq_mshr_miss_latency::total    151030000                       # number of ReadReq MSHR miss cycles
system.cpu.icache.ReadReq_mshr_miss_rate::.cpu.inst     0.008856                       # mshr miss rate for ReadReq accesses
system.cpu.icache.ReadReq_mshr_miss_rate::total     0.008856                       # mshr miss rate for ReadReq accesses
system.cpu.icache.ReadReq_avg_mshr_miss_latency::.cpu.inst 47448.947534                       # average ReadReq mshr miss latency
system.cpu.icache.ReadReq_avg_mshr_miss_latency::total 47448.947534                       # average ReadReq mshr miss latency
system.cpu.icache.prefetcher.pwrStateResidencyTicks::UNDEFINED   1306896800                       # Cumulative time (in ticks) in various power states
system.cpu.icache.tags.pwrStateResidencyTicks::UNDEFINED   1306896800                       # Cumulative time (in ticks) in various power states
system.cpu.icache.tags.tagsinuse           253.899895                       # Cycle average of tags in use
system.cpu.icache.tags.total_refs              279841                       # Total number of references to valid blocks.
system.cpu.icache.tags.sampled_refs              2927                       # Sample count of references to valid blocks.
system.cpu.icache.tags.avg_refs             95.606765                       # Average number of references to valid blocks.
system.cpu.icache.tags.warmup_cycle             66400                       # Cycle when the warmup percentage was hit.
system.cpu.icache.tags.occ_blocks::.cpu.inst   253.899895                       # Average occupied blocks per requestor
system.cpu.icache.tags.occ_percent::.cpu.inst     0.991796                       # Average percentage of cache occupancy
system.cpu.icache.tags.occ_percent::total     0.991796                       # Average percentage of cache occupancy
system.cpu.icache.tags.occ_task_id_blocks::1024          256                       # Occupied blocks per task id
system.cpu.icache.tags.age_task_id_blocks_1024::0           78                       # Occupied blocks per task id
system.cpu.icache.tags.age_task_id_blocks_1024::1            5                       # Occupied blocks per task id
system.cpu.icache.tags.age_task_id_blocks_1024::2          169                       # Occupied blocks per task id
system.cpu.icache.tags.age_task_id_blocks_1024::3            4                       # Occupied blocks per task id
system.cpu.icache.tags.occ_task_id_percent::1024            1                       # Percentage of cache occupancy per task id
system.cpu.icache.tags.tag_accesses            721993                       # Number of tag accesses
system.cpu.icache.tags.data_accesses           721993                       # Number of data accesses
system.cpu.dtb.walker.pwrStateResidencyTicks::UNDEFINED   1306896800                       # Cumulative time (in ticks) in various power states
system.cpu.interrupts.clk_domain.clock           6400                       # Clock period in ticks
system.cpu.itb.walker.pwrStateResidencyTicks::UNDEFINED   1306896800                       # Cumulative time (in ticks) in various power states
system.cpu.dcache.pwrStateResidencyTicks::UNDEFINED   1306896800                       # Cumulative time (in ticks) in various power states
system.cpu.dcache.demand_hits::.cpu.data       988786                       # number of demand (read+write) hits
system.cpu.dcache.demand_hits::total           988786                       # number of demand (read+write) hits
system.cpu.dcache.overall_hits::.cpu.data       988786                       # number of overall hits
system.cpu.dcache.overall_hits::total          988786                       # number of overall hits
system.cpu.dcache.demand_misses::.cpu.data        34763                       # number of demand (read+write) misses
system.cpu.dcache.demand_misses::total          34763                       # number of demand (read+write) misses
system.cpu.dcache.overall_misses::.cpu.data        34763                       # number of overall misses
system.cpu.dcache.overall_misses::total         34763                       # number of overall misses
system.cpu.dcache.demand_miss_latency::.cpu.data   1673367200                       # number of demand (read+write) miss cycles
system.cpu.dcache.demand_miss_latency::total   1673367200                       # number of demand (read+write) miss cycles
system.cpu.dcache.overall_miss_latency::.cpu.data   1673367200                       # number of overall miss cycles
system.cpu.dcache.overall_miss_latency::total   1673367200                       # number of overall miss cycles
system.cpu.dcache.demand_accesses::.cpu.data      1023549                       # number of demand (read+write) accesses
system.cpu.dcache.demand_accesses::total      1023549                       # number of demand (read+write) accesses
system.cpu.dcache.overall_accesses::.cpu.data      1023549                       # number of overall (read+write) accesses
system.cpu.dcache.overall_accesses::total      1023549                       # number of overall (read+write) accesses
system.cpu.dcache.demand_miss_rate::.cpu.data     0.033963                       # miss rate for demand accesses
system.cpu.dcache.demand_miss_rate::total     0.033963                       # miss rate for demand accesses
system.cpu.dcache.overall_miss_rate::.cpu.data     0.033963                       # miss rate for overall accesses
system.cpu.dcache.overall_miss_rate::total     0.033963                       # miss rate for overall accesses
system.cpu.dcache.demand_avg_miss_latency::.cpu.data 48136.443920                       # average overall miss latency
system.cpu.dcache.demand_avg_miss_latency::total 48136.443920                       # average overall miss latency
system.cpu.dcache.overall_avg_miss_latency::.cpu.data 48136.443920                       # average overall miss latency
system.cpu.dcache.overall_avg_miss_latency::total 48136.443920                       # average overall miss latency
system.cpu.dcache.blocked_cycles::no_mshrs        28825                       # number of cycles access was blocked
system.cpu.dcache.blocked_cycles::no_targets          162                       # number of cycles access was blocked
system.cpu.dcache.blocked::no_mshrs               749                       # number of cycles access was blocked
system.cpu.dcache.blocked::no_targets               2                       # number of cycles access was blocked
system.cpu.dcache.avg_blocked_cycles::no_mshrs    38.484646                       # average number of cycles each access was blocked
system.cpu.dcache.avg_blocked_cycles::no_targets           81                       # average number of cycles each access was blocked
system.cpu.dcache.unused_prefetches              1924                       # number of HardPF blocks evicted w/o reference
system.cpu.dcache.writebacks::.writebacks         2809                       # number of writebacks
system.cpu.dcache.writebacks::total              2809                       # number of writebacks
system.cpu.dcache.demand_mshr_hits::.cpu.data        22173                       # number of demand (read+write) MSHR hits
system.cpu.dcache.demand_mshr_hits::total        22173                       # number of demand (read+write) MSHR hits
system.cpu.dcache.overall_mshr_hits::.cpu.data        22173                       # number of overall MSHR hits
system.cpu.dcache.overall_mshr_hits::total        22173                       # number of overall MSHR hits
system.cpu.dcache.demand_mshr_misses::.cpu.data        12590                       # number of demand (read+write) MSHR misses
system.cpu.dcache.demand_mshr_misses::total        12590                       # number of demand (read+write) MSHR misses
system.cpu.dcache.overall_mshr_misses::.cpu.data        12590                       # number of overall MSHR misses
system.cpu.dcache.overall_mshr_misses::.cpu.dcache.prefetcher         4580                       # number of overall MSHR misses
system.cpu.dcache.overall_mshr_misses::total        17170                       # number of overall MSHR misses
system.cpu.dcache.demand_mshr_miss_latency::.cpu.data    571508800                       # number of demand (read+write) MSHR miss cycles
system.cpu.dcache.demand_mshr_miss_latency::total    571508800                       # number of demand (read+write) MSHR miss cycles
system.cpu.dcache.overall_mshr_miss_latency::.cpu.data    571508800                       # number of overall MSHR miss cycles
system.cpu.dcache.overall_mshr_miss_latency::.cpu.dcache.prefetcher    260331871                       # number of overall MSHR miss cycles
system.cpu.dcache.overall_mshr_miss_latency::total    831840671                       # number of overall MSHR miss cycles
system.cpu.dcache.demand_mshr_miss_rate::.cpu.data     0.012300                       # mshr miss rate for demand accesses
system.cpu.dcache.demand_mshr_miss_rate::total     0.012300                       # mshr miss rate for demand accesses
system.cpu.dcache.overall_mshr_miss_rate::.cpu.data     0.012300                       # mshr miss rate for overall accesses
system.cpu.dcache.overall_mshr_miss_rate::.cpu.dcache.prefetcher          inf                       # mshr miss rate for overall accesses
system.cpu.dcache.overall_mshr_miss_rate::total     0.016775                       # mshr miss rate for overall accesses
system.cpu.dcache.demand_avg_mshr_miss_latency::.cpu.data 45393.868149                       # average overall mshr miss latency
system.cpu.dcache.demand_avg_mshr_miss_latency::total 45393.868149                       # average overall mshr miss latency
system.cpu.dcache.overall_avg_mshr_miss_latency::.cpu.data 45393.868149                       # average overall mshr miss latency
system.cpu.dcache.overall_avg_mshr_miss_latency::.cpu.dcache.prefetcher 56841.019869                       # average overall mshr miss latency
system.cpu.dcache.overall_avg_mshr_miss_latency::total 48447.330868                       # average overall mshr miss latency
system.cpu.dcache.replacements                  16146                       # number of replacements
system.cpu.dcache.ReadReq_hits::.cpu.data       717705                       # number of ReadReq hits
system.cpu.dcache.ReadReq_hits::total          717705                       # number of ReadReq hits
system.cpu.dcache.ReadReq_misses::.cpu.data        32680                       # number of ReadReq misses
system.cpu.dcache.ReadReq_misses::total         32680                       # number of ReadReq misses
system.cpu.dcache.ReadReq_miss_latency::.cpu.data   1571248400                       # number of ReadReq miss cycles
system.cpu.dcache.ReadReq_miss_latency::total   1571248400                       # number of ReadReq miss cycles
system.cpu.dcache.ReadReq_accesses::.cpu.data       750385                       # number of ReadReq accesses(hits+misses)
system.cpu.dcache.ReadReq_accesses::total       750385                       # number of ReadReq accesses(hits+misses)
system.cpu.dcache.ReadReq_miss_rate::.cpu.data     0.043551                       # miss rate for ReadReq accesses
system.cpu.dcache.ReadReq_miss_rate::total     0.043551                       # miss rate for ReadReq accesses
system.cpu.dcache.ReadReq_avg_miss_latency::.cpu.data 48079.816401                       # average ReadReq miss latency
system.cpu.dcache.ReadReq_avg_miss_latency::total 48079.816401                       # average ReadReq miss latency
system.cpu.dcache.ReadReq_mshr_hits::.cpu.data        22139                       # number of ReadReq MSHR hits
system.cpu.dcache.ReadReq_mshr_hits::total        22139                       # number of ReadReq MSHR hits
system.cpu.dcache.ReadReq_mshr_misses::.cpu.data        10541                       # number of ReadReq MSHR misses
system.cpu.dcache.ReadReq_mshr_misses::total        10541                       # number of ReadReq MSHR misses
system.cpu.dcache.ReadReq_mshr_miss_latency::.cpu.data    472152400                       # number of ReadReq MSHR miss cycles
system.cpu.dcache.ReadReq_mshr_miss_latency::total    472152400                       # number of ReadReq MSHR miss cycles
system.cpu.dcache.ReadReq_mshr_miss_rate::.cpu.data     0.014047                       # mshr miss rate for ReadReq accesses
system.cpu.dcache.ReadReq_mshr_miss_rate::total     0.014047                       # mshr miss rate for ReadReq accesses
system.cpu.dcache.ReadReq_avg_mshr_miss_latency::.cpu.data 44791.993170                       # average ReadReq mshr miss latency
system.cpu.dcache.ReadReq_avg_mshr_miss_latency::total 44791.993170                       # average ReadReq mshr miss latency
system.cpu.dcache.WriteReq_hits::.cpu.data       271081                       # number of WriteReq hits
system.cpu.dcache.WriteReq_hits::total         271081                       # number of WriteReq hits
system.cpu.dcache.WriteReq_misses::.cpu.data         2083                       # number of WriteReq misses
system.cpu.dcache.WriteReq_misses::total         2083                       # number of WriteReq misses
system.cpu.dcache.WriteReq_miss_latency::.cpu.data    102118800                       # number of WriteReq miss cycles
system.cpu.dcache.WriteReq_miss_latency::total    102118800                       # number of WriteReq miss cycles
system.cpu.dcache.WriteReq_accesses::.cpu.data       273164                       # number of WriteReq accesses(hits+misses)
system.cpu.dcache.WriteReq_accesses::total       273164                       # number of WriteReq accesses(hits+misses)
system.cpu.dcache.WriteReq_miss_rate::.cpu.data     0.007625                       # miss rate for WriteReq accesses
system.cpu.dcache.WriteReq_miss_rate::total     0.007625                       # miss rate for WriteReq accesses
system.cpu.dcache.WriteReq_avg_miss_latency::.cpu.data 49024.867979                       # average WriteReq miss latency
system.cpu.dcache.WriteReq_avg_miss_latency::total 49024.867979                       # average WriteReq miss latency
system.cpu.dcache.WriteReq_mshr_hits::.cpu.data           34                       # number of WriteReq MSHR hits
system.cpu.dcache.WriteReq_mshr_hits::total           34                       # number of WriteReq MSHR hits
system.cpu.dcache.WriteReq_mshr_misses::.cpu.data         2049                       # number of WriteReq MSHR misses
system.cpu.dcache.WriteReq_mshr_misses::total         2049                       # number of WriteReq MSHR misses
[...]
system.l2cache.demand_mshr_miss_rate::.cpu.inst     0.315574                       # mshr miss rate for demand accesses
system.l2cache.demand_mshr_miss_rate::.cpu.data     0.547297                       # mshr miss rate for demand accesses
system.l2cache.demand_mshr_miss_rate::.cpu.dcache.prefetcher     0.611111                       # mshr miss rate for demand accesses
system.l2cache.demand_mshr_miss_rate::total     0.376147                       # mshr miss rate for demand accesses
system.l2cache.overall_mshr_miss_rate::.cpu.inst     0.315574                       # mshr miss rate for overall accesses
system.l2cache.overall_mshr_miss_rate::.cpu.data     0.547297                       # mshr miss rate for overall accesses
system.l2cache.overall_mshr_miss_rate::.cpu.dcache.prefetcher     0.611111                       # mshr miss rate for overall accesses
system.l2cache.overall_mshr_miss_rate::.l2cache.prefetcher          inf                       # mshr miss rate for overall accesses
system.l2cache.overall_mshr_miss_rate::total     0.379205                       # mshr miss rate for overall accesses
system.l2cache.demand_avg_mshr_miss_latency::.cpu.inst 58854.545455                       # average overall mshr miss latency
system.l2cache.demand_avg_mshr_miss_latency::.cpu.data 60765.432099                       # average overall mshr miss latency
system.l2cache.demand_avg_mshr_miss_latency::.cpu.dcache.prefetcher 57926.272727                       # average overall mshr miss latency
system.l2cache.demand_avg_mshr_miss_latency::total 59442.231707                       # average overall mshr miss latency
system.l2cache.overall_avg_mshr_miss_latency::.cpu.inst 58854.545455                       # average overall mshr miss latency
system.l2cache.overall_avg_mshr_miss_latency::.cpu.data 60765.432099                       # average overall mshr miss latency
system.l2cache.overall_avg_mshr_miss_latency::.cpu.dcache.prefetcher 57926.272727                       # average overall mshr miss latency
system.l2cache.overall_avg_mshr_miss_latency::.l2cache.prefetcher 141798.500000                       # average overall mshr miss latency
system.l2cache.overall_avg_mshr_miss_latency::total 60106.395161                       # average overall mshr miss latency
system.l2cache.replacements                       251                       # number of replacements
system.l2cache.WritebackDirty_hits::.writebacks           44                       # number of WritebackDirty hits
system.l2cache.WritebackDirty_hits::total           44                       # number of WritebackDirty hits
system.l2cache.WritebackDirty_accesses::.writebacks           44                       # number of WritebackDirty accesses(hits+misses)
system.l2cache.WritebackDirty_accesses::total           44                       # number of WritebackDirty accesses(hits+misses)
system.l2cache.CleanEvict_mshr_misses::.writebacks            6                       # number of CleanEvict MSHR misses
system.l2cache.CleanEvict_mshr_misses::total            6                       # number of CleanEvict MSHR misses
system.l2cache.CleanEvict_mshr_miss_rate::.writebacks          inf                       # mshr miss rate for CleanEvict accesses
system.l2cache.CleanEvict_mshr_miss_rate::total          inf                       # mshr miss rate for CleanEvict accesses
system.l2cache.HardPFReq_mshr_misses::.l2cache.prefetcher            2                       # number of HardPFReq MSHR misses
system.l2cache.HardPFReq_mshr_misses::total            2                       # number of HardPFReq MSHR misses
system.l2cache.HardPFReq_mshr_miss_latency::.l2cache.prefetcher       283597                       # number of HardPFReq MSHR miss cycles
system.l2cache.HardPFReq_mshr_miss_latency::total       283597                       # number of HardPFReq MSHR miss cycles
system.l2cache.HardPFReq_mshr_miss_rate::.l2cache.prefetcher          inf                       # mshr miss rate for HardPFReq accesses
system.l2cache.HardPFReq_mshr_miss_rate::total          inf                       # mshr miss rate for HardPFReq accesses
system.l2cache.HardPFReq_avg_mshr_miss_latency::.l2cache.prefetcher 141798.500000                       # average HardPFReq mshr miss latency
system.l2cache.HardPFReq_avg_mshr_miss_latency::total 141798.500000                       # average HardPFReq mshr miss latency
system.l2cache.ReadExReq_hits::.cpu.data            4                       # number of ReadExReq hits
system.l2cache.ReadExReq_hits::total                4                       # number of ReadExReq hits
system.l2cache.ReadExReq_misses::.cpu.data            4                       # number of ReadExReq misses
system.l2cache.ReadExReq_misses::total              4                       # number of ReadExReq misses
system.l2cache.ReadExReq_miss_latency::.cpu.data       324800                       # number of ReadExReq miss cycles
system.l2cache.ReadExReq_miss_latency::total       324800                       # number of ReadExReq miss cycles
system.l2cache.ReadExReq_accesses::.cpu.data            8                       # number of ReadExReq accesses(hits+misses)
system.l2cache.ReadExReq_accesses::total            8                       # number of ReadExReq accesses(hits+misses)
system.l2cache.ReadExReq_miss_rate::.cpu.data     0.500000                       # miss rate for ReadExReq accesses
system.l2cache.ReadExReq_miss_rate::total     0.500000                       # miss rate for ReadExReq accesses
system.l2cache.ReadExReq_avg_miss_latency::.cpu.data        81200                       # average ReadExReq miss latency
system.l2cache.ReadExReq_avg_miss_latency::total        81200                       # average ReadExReq miss latency
system.l2cache.ReadExReq_mshr_misses::.cpu.data            4                       # number of ReadExReq MSHR misses
system.l2cache.ReadExReq_mshr_misses::total            4                       # number of ReadExReq MSHR misses
system.l2cache.ReadExReq_mshr_miss_latency::.cpu.data       292800                       # number of ReadExReq MSHR miss cycles
system.l2cache.ReadExReq_mshr_miss_latency::total       292800                       # number of ReadExReq MSHR miss cycles
system.l2cache.ReadExReq_mshr_miss_rate::.cpu.data     0.500000                       # mshr miss rate for ReadExReq accesses
system.l2cache.ReadExReq_mshr_miss_rate::total     0.500000                       # mshr miss rate for ReadExReq accesses
system.l2cache.ReadExReq_avg_mshr_miss_latency::.cpu.data        73200                       # average ReadExReq mshr miss latency
system.l2cache.ReadExReq_avg_mshr_miss_latency::total        73200                       # average ReadExReq mshr miss latency
system.l2cache.ReadSharedReq_hits::.cpu.inst          334                       # number of ReadSharedReq hits
system.l2cache.ReadSharedReq_hits::.cpu.data           63                       # number of ReadSharedReq hits
system.l2cache.ReadSharedReq_hits::.cpu.dcache.prefetcher            6                       # number of ReadSharedReq hits
system.l2cache.ReadSharedReq_hits::total          403                       # number of ReadSharedReq hits
system.l2cache.ReadSharedReq_misses::.cpu.inst          154                       # number of ReadSharedReq misses
system.l2cache.ReadSharedReq_misses::.cpu.data           77                       # number of ReadSharedReq misses
system.l2cache.ReadSharedReq_misses::.cpu.dcache.prefetcher           12                       # number of ReadSharedReq misses
system.l2cache.ReadSharedReq_misses::total          243                       # number of ReadSharedReq misses
system.l2cache.ReadSharedReq_miss_latency::.cpu.inst     10287600                       # number of ReadSharedReq miss cycles
system.l2cache.ReadSharedReq_miss_latency::.cpu.data      5245200                       # number of ReadSharedReq miss cycles
system.l2cache.ReadSharedReq_miss_latency::.cpu.dcache.prefetcher       889188                       # number of ReadSharedReq miss cycles
system.l2cache.ReadSharedReq_miss_latency::total     16421988                       # number of ReadSharedReq miss cycles
system.l2cache.ReadSharedReq_accesses::.cpu.inst          488                       # number of ReadSharedReq accesses(hits+misses)
system.l2cache.ReadSharedReq_accesses::.cpu.data          140                       # number of ReadSharedReq accesses(hits+misses)
system.l2cache.ReadSharedReq_accesses::.cpu.dcache.prefetcher           18                       # number of ReadSharedReq accesses(hits+misses)
system.l2cache.ReadSharedReq_accesses::total          646                       # number of ReadSharedReq accesses(hits+misses)
system.l2cache.ReadSharedReq_miss_rate::.cpu.inst     0.315574                       # miss rate for ReadSharedReq accesses
system.l2cache.ReadSharedReq_miss_rate::.cpu.data     0.550000                       # miss rate for ReadSharedReq accesses
system.l2cache.ReadSharedReq_miss_rate::.cpu.dcache.prefetcher     0.666667                       # miss rate for ReadSharedReq accesses
system.l2cache.ReadSharedReq_miss_rate::total     0.376161                       # miss rate for ReadSharedReq accesses
system.l2cache.ReadSharedReq_avg_miss_latency::.cpu.inst 66802.597403                       # average ReadSharedReq miss latency
system.l2cache.ReadSharedReq_avg_miss_latency::.cpu.data 68119.480519                       # average ReadSharedReq miss latency
system.l2cache.ReadSharedReq_avg_miss_latency::.cpu.dcache.prefetcher        74099                       # average ReadSharedReq miss latency
system.l2cache.ReadSharedReq_avg_miss_latency::total 67580.197531                       # average ReadSharedReq miss latency
system.l2cache.ReadSharedReq_mshr_hits::.cpu.dcache.prefetcher            1                       # number of ReadSharedReq MSHR hits
system.l2cache.ReadSharedReq_mshr_hits::total            1                       # number of ReadSharedReq MSHR hits
system.l2cache.ReadSharedReq_mshr_misses::.cpu.inst          154                       # number of ReadSharedReq MSHR misses
system.l2cache.ReadSharedReq_mshr_misses::.cpu.data           77                       # number of ReadSharedReq MSHR misses
system.l2cache.ReadSharedReq_mshr_misses::.cpu.dcache.prefetcher           11                       # number of ReadSharedReq MSHR misses
system.l2cache.ReadSharedReq_mshr_misses::total          242                       # number of ReadSharedReq MSHR misses
system.l2cache.ReadSharedReq_mshr_miss_latency::.cpu.inst      9063600                       # number of ReadSharedReq MSHR miss cycles
system.l2cache.ReadSharedReq_mshr_miss_latency::.cpu.data      4629200                       # number of ReadSharedReq MSHR miss cycles
system.l2cache.ReadSharedReq_mshr_miss_latency::.cpu.dcache.prefetcher       637189                       # number of ReadSharedReq MSHR miss cycles
system.l2cache.ReadSharedReq_mshr_miss_latency::total     14329989                       # number of ReadSharedReq MSHR miss cycles
system.l2cache.ReadSharedReq_mshr_miss_rate::.cpu.inst     0.315574                       # mshr miss rate for ReadSharedReq accesses
system.l2cache.ReadSharedReq_mshr_miss_rate::.cpu.data     0.550000                       # mshr miss rate for ReadSharedReq accesses
system.l2cache.ReadSharedReq_mshr_miss_rate::.cpu.dcache.prefetcher     0.611111                       # mshr miss rate for ReadSharedReq accesses
system.l2cache.ReadSharedReq_mshr_miss_rate::total     0.374613                       # mshr miss rate for ReadSharedReq accesses
system.l2cache.ReadSharedReq_avg_mshr_miss_latency::.cpu.inst 58854.545455                       # average ReadSharedReq mshr miss latency
system.l2cache.ReadSharedReq_avg_mshr_miss_latency::.cpu.data 60119.480519                       # average ReadSharedReq mshr miss latency
system.l2cache.ReadSharedReq_avg_mshr_miss_latency::.cpu.dcache.prefetcher 57926.272727                       # average ReadSharedReq mshr miss latency
system.l2cache.ReadSharedReq_avg_mshr_miss_latency::total 59214.830579                       # average ReadSharedReq mshr miss latency
system.l2cache.prefetcher.pwrStateResidencyTicks::UNDEFINED    236460800                       # Cumulative time (in ticks) in various power states
system.l2cache.tags.pwrStateResidencyTicks::UNDEFINED    236460800                       # Cumulative time (in ticks) in various power states
system.l2cache.tags.tagsinuse                    4096                       # Cycle average of tags in use
system.l2cache.tags.total_refs                  14436                       # Total number of references to valid blocks.
system.l2cache.tags.sampled_refs                 4347                       # Sample count of references to valid blocks.
system.l2cache.tags.avg_refs                 3.320911                       # Average number of references to valid blocks.
system.l2cache.tags.warmup_cycle                    0                       # Cycle when the warmup percentage was hit.
system.l2cache.tags.occ_blocks::.writebacks    36.042801                       # Average occupied blocks per requestor
system.l2cache.tags.occ_blocks::.cpu.inst  1135.221627                       # Average occupied blocks per requestor
system.l2cache.tags.occ_blocks::.cpu.data  1784.809299                       # Average occupied blocks per requestor
system.l2cache.tags.occ_blocks::.cpu.dcache.prefetcher  1011.058031                       # Average occupied blocks per requestor
system.l2cache.tags.occ_blocks::.l2cache.prefetcher   128.868242                       # Average occupied blocks per requestor
system.l2cache.tags.occ_percent::.writebacks     0.008800                       # Average percentage of cache occupancy
system.l2cache.tags.occ_percent::.cpu.inst     0.277154                       # Average percentage of cache occupancy
system.l2cache.tags.occ_percent::.cpu.data     0.435744                       # Average percentage of cache occupancy
system.l2cache.tags.occ_percent::.cpu.dcache.prefetcher     0.246840                       # Average percentage of cache occupancy
system.l2cache.tags.occ_percent::.l2cache.prefetcher     0.031462                       # Average percentage of cache occupancy
system.l2cache.tags.occ_percent::total              1                       # Average percentage of cache occupancy
system.l2cache.tags.occ_task_id_blocks::1022         1092                       # Occupied blocks per task id
system.l2cache.tags.occ_task_id_blocks::1024         3004                       # Occupied blocks per task id
system.l2cache.tags.age_task_id_blocks_1022::0            9                       # Occupied blocks per task id
system.l2cache.tags.age_task_id_blocks_1022::2            4                       # Occupied blocks per task id
system.l2cache.tags.age_task_id_blocks_1022::4         1079                       # Occupied blocks per task id
system.l2cache.tags.age_task_id_blocks_1024::0          162                       # Occupied blocks per task id
system.l2cache.tags.age_task_id_blocks_1024::1           33                       # Occupied blocks per task id
system.l2cache.tags.age_task_id_blocks_1024::2           43                       # Occupied blocks per task id
system.l2cache.tags.age_task_id_blocks_1024::4         2766                       # Occupied blocks per task id
system.l2cache.tags.occ_task_id_percent::1022     0.266602                       # Percentage of cache occupancy per task id
system.l2cache.tags.occ_task_id_percent::1024     0.733398                       # Percentage of cache occupancy per task id
system.l2cache.tags.tag_accesses                10659                       # Number of tag accesses
system.l2cache.tags.data_accesses               10659                       # Number of data accesses
system.mem_ctrl.pwrStateResidencyTicks::UNDEFINED    236460800                       # Cumulative time (in ticks) in various power states
system.mem_ctrl.bytes_read::.cpu.inst            9792                       # Number of bytes read from this memory
system.mem_ctrl.bytes_read::.cpu.data            5184                       # Number of bytes read from this memory
system.mem_ctrl.bytes_read::.cpu.dcache.prefetcher          704                       # Number of bytes read from this memory
system.mem_ctrl.bytes_read::.l2cache.prefetcher          128                       # Number of bytes read from this memory
system.mem_ctrl.bytes_read::total               15808                       # Number of bytes read from this memory
system.mem_ctrl.bytes_inst_read::.cpu.inst         9792                       # Number of instructions bytes read from this memory
system.mem_ctrl.bytes_inst_read::total           9792                       # Number of instructions bytes read from this memory
system.mem_ctrl.bytes_written::.writebacks          960                       # Number of bytes written to this memory
system.mem_ctrl.bytes_written::total              960                       # Number of bytes written to this memory
system.mem_ctrl.num_reads::.cpu.inst              153                       # Number of read requests responded to by this memory
system.mem_ctrl.num_reads::.cpu.data               81                       # Number of read requests responded to by this memory
system.mem_ctrl.num_reads::.cpu.dcache.prefetcher           11                       # Number of read requests responded to by this memory
system.mem_ctrl.num_reads::.l2cache.prefetcher            2                       # Number of read requests responded to by this memory
system.mem_ctrl.num_reads::total                  247                       # Number of read requests responded to by this memory
system.mem_ctrl.num_writes::.writebacks            15                       # Number of write requests responded to by this memory
system.mem_ctrl.num_writes::total                  15                       # Number of write requests responded to by this memory
system.mem_ctrl.bw_read::.cpu.inst           41410669                       # Total read bandwidth from this memory (bytes/s)
system.mem_ctrl.bw_read::.cpu.data           21923296                       # Total read bandwidth from this memory (bytes/s)
system.mem_ctrl.bw_read::.cpu.dcache.prefetcher      2977238                       # Total read bandwidth from this memory (bytes/s)
system.mem_ctrl.bw_read::.l2cache.prefetcher       541316                       # Total read bandwidth from this memory (bytes/s)
system.mem_ctrl.bw_read::total               66852518                       # Total read bandwidth from this memory (bytes/s)
system.mem_ctrl.bw_inst_read::.cpu.inst      41410669                       # Instruction read bandwidth from this memory (bytes/s)
system.mem_ctrl.bw_inst_read::total          41410669                       # Instruction read bandwidth from this memory (bytes/s)
system.mem_ctrl.bw_write::.writebacks         4059870                       # Write bandwidth from this memory (bytes/s)
system.mem_ctrl.bw_write::total               4059870                       # Write bandwidth from this memory (bytes/s)
system.mem_ctrl.bw_total::.writebacks         4059870                       # Total bandwidth to/from this memory (bytes/s)
system.mem_ctrl.bw_total::.cpu.inst          41410669                       # Total bandwidth to/from this memory (bytes/s)
system.mem_ctrl.bw_total::.cpu.data          21923296                       # Total bandwidth to/from this memory (bytes/s)
system.mem_ctrl.bw_total::.cpu.dcache.prefetcher      2977238                       # Total bandwidth to/from this memory (bytes/s)
system.mem_ctrl.bw_total::.l2cache.prefetcher       541316                       # Total bandwidth to/from this memory (bytes/s)
system.mem_ctrl.bw_total::total              70912388                       # Total bandwidth to/from this memory (bytes/s)

---------- End Simulation Statistics   ----------
