
---------- Begin Simulation Statistics ----------
final_tick                                 5843225200                       # Number of ticks from beginning of simulation (restored from checkpoints and never reset)
host_inst_rate                                  60048                       # Simulator instruction rate (inst/s)
host_mem_usage                                4416836                       # Number of bytes of host memory used
host_op_rate                                   114928                       # Simulator op (including micro ops) rate (op/s)
host_seconds                                    71.27                       # Real time elapsed on the host
host_tick_rate                               81982653                       # Simulator tick rate (ticks/s)
sim_freq                                 1000000000000                       # Frequency of simulated ticks
sim_insts                                     4279836                       # Number of instructions simulated
sim_ops                                       8191376                       # Number of ops (including micro ops) simulated
sim_seconds                                  0.005843                       # Number of seconds simulated
sim_ticks                                  5843225200                       # Number of ticks simulated
system.cpu.branchPred.BTBCorrect                    0                       # Number of correct BTB predictions (this stat may not work properly.
system.cpu.branchPred.BTBHitPct              0.000000                       # BTB Hit Percentage
system.cpu.branchPred.BTBHits                       0                       # Number of BTB hits
system.cpu.branchPred.BTBLookups              1330827                       # Number of BTB lookups
system.cpu.branchPred.RASInCorrect                  8                       # Number of incorrect RAS predictions.
system.cpu.branchPred.condIncorrect             33959                       # Number of conditional branches incorrect
system.cpu.branchPred.condPredicted           1363801                       # Number of conditional branches predicted
system.cpu.branchPred.indirectHits             955662                       # Number of indirect target hits.
system.cpu.branchPred.indirectLookups         1330827                       # Number of indirect predictor lookups.
system.cpu.branchPred.indirectMisses           375165                       # Number of indirect misses.
system.cpu.branchPred.lookups                 1436407                       # Number of BP lookups
system.cpu.branchPred.usedRAS                   33332                       # Number of times the RAS was used to get a target.
system.cpu.branchPredindirectMispredicted        18322                       # Number of mispredicted indirect branches.
system.cpu.cc_regfile_reads                   6837197                       # number of cc regfile reads
system.cpu.cc_regfile_writes                  6243632                       # number of cc regfile writes
system.cpu.commit.amos                              0                       # Number of atomic instructions committed
system.cpu.commit.branchMispredicts             34011                       # The number of times a branch was mispredicted
system.cpu.commit.branches                     784412                       # Number of branches committed
system.cpu.commit.bw_lim_events               1285692                       # number cycles where commit BW limit reached
system.cpu.commit.commitNonSpecStalls             916                       # The number of times commit has been forced to stall to communicate backwards
system.cpu.commit.commitSquashedInsts         9042084                       # The number of squashed insts skipped by commit
system.cpu.commit.committedInsts              4279836                       # Number of instructions committed
system.cpu.commit.committedOps                8191376                       # Number of ops (including micro ops) committed
system.cpu.commit.committed_per_cycle::samples     11971711                       # Number of insts commited each cycle
system.cpu.commit.committed_per_cycle::mean     0.684228                       # Number of insts commited each cycle
system.cpu.commit.committed_per_cycle::stdev     1.367863                       # Number of insts commited each cycle
system.cpu.commit.committed_per_cycle::underflows            0      0.00%      0.00% # Number of insts commited each cycle
system.cpu.commit.committed_per_cycle::0      9229646     77.10%     77.10% # Number of insts commited each cycle
system.cpu.commit.committed_per_cycle::1       464272      3.88%     80.97% # Number of insts commited each cycle
system.cpu.commit.committed_per_cycle::2       391967      3.27%     84.25% # Number of insts commited each cycle
system.cpu.commit.committed_per_cycle::3       600134      5.01%     89.26% # Number of insts commited each cycle
system.cpu.commit.committed_per_cycle::4      1285692     10.74%    100.00% # Number of insts commited each cycle
system.cpu.commit.committed_per_cycle::overflows            0      0.00%    100.00% # Number of insts commited each cycle
system.cpu.commit.committed_per_cycle::min_value            0                       # Number of insts commited each cycle
system.cpu.commit.committed_per_cycle::max_value            4                       # Number of insts commited each cycle
system.cpu.commit.committed_per_cycle::total     11971711                       # Number of insts commited each cycle
system.cpu.commit.fp_insts                     822608                       # Number of committed floating point instructions.
system.cpu.commit.function_calls                30540                       # Number of function calls committed.
system.cpu.commit.int_insts                   8008204                       # Number of committed integer instructions.
system.cpu.commit.loads                       1218888                       # Number of loads committed
system.cpu.commit.membars                          29                       # Number of memory barriers committed
system.cpu.commit.op_class_0::No_OpClass        43027      0.53%      0.53% # Class of committed instruction
system.cpu.commit.op_class_0::IntAlu          5908787     72.13%     72.66% # Class of committed instruction
system.cpu.commit.op_class_0::IntMult            1726      0.02%     72.68% # Class of committed instruction
system.cpu.commit.op_class_0::IntDiv            60008      0.73%     73.41% # Class of committed instruction
system.cpu.commit.op_class_0::FloatAdd           7629      0.09%     73.51% # Class of committed instruction
system.cpu.commit.op_class_0::FloatCmp              0      0.00%     73.51% # Class of committed instruction
system.cpu.commit.op_class_0::FloatCvt           1408      0.02%     73.52% # Class of committed instruction
system.cpu.commit.op_class_0::FloatMult             0      0.00%     73.52% # Class of committed instruction
system.cpu.commit.op_class_0::FloatMultAcc            0      0.00%     73.52% # Class of committed instruction
system.cpu.commit.op_class_0::FloatDiv              0      0.00%     73.52% # Class of committed instruction
system.cpu.commit.op_class_0::FloatMisc             0      0.00%     73.52% # Class of committed instruction
system.cpu.commit.op_class_0::FloatSqrt             0      0.00%     73.52% # Class of committed instruction
system.cpu.commit.op_class_0::SimdAdd           12888      0.16%     73.68% # Class of committed instruction
system.cpu.commit.op_class_0::SimdAddAcc            0      0.00%     73.68% # Class of committed instruction
system.cpu.commit.op_class_0::SimdAlu           65397      0.80%     74.48% # Class of committed instruction
system.cpu.commit.op_class_0::SimdCmp               0      0.00%     74.48% # Class of committed instruction
system.cpu.commit.op_class_0::SimdCvt           28700      0.35%     74.83% # Class of committed instruction
system.cpu.commit.op_class_0::SimdMisc          25930      0.32%     75.15% # Class of committed instruction
system.cpu.commit.op_class_0::SimdMult              0      0.00%     75.15% # Class of committed instruction
system.cpu.commit.op_class_0::SimdMultAcc            0      0.00%     75.15% # Class of committed instruction
system.cpu.commit.op_class_0::SimdShift          1334      0.02%     75.16% # Class of committed instruction
system.cpu.commit.op_class_0::SimdShiftAcc            0      0.00%     75.16% # Class of committed instruction
system.cpu.commit.op_class_0::SimdDiv               0      0.00%     75.16% # Class of committed instruction
system.cpu.commit.op_class_0::SimdSqrt              0      0.00%     75.16% # Class of committed instruction
system.cpu.commit.op_class_0::SimdFloatAdd          650      0.01%     75.17% # Class of committed instruction
system.cpu.commit.op_class_0::SimdFloatAlu            0      0.00%     75.17% # Class of committed instruction
system.cpu.commit.op_class_0::SimdFloatCmp            0      0.00%     75.17% # Class of committed instruction
system.cpu.commit.op_class_0::SimdFloatCvt         3920      0.05%     75.22% # Class of committed instruction
system.cpu.commit.op_class_0::SimdFloatDiv            0      0.00%     75.22% # Class of committed instruction
system.cpu.commit.op_class_0::SimdFloatMisc            0      0.00%     75.22% # Class of committed instruction
system.cpu.commit.op_class_0::SimdFloatMult            0      0.00%     75.22% # Class of committed instruction
system.cpu.commit.op_class_0::SimdFloatMultAcc            0      0.00%     75.22% # Class of committed instruction
system.cpu.commit.op_class_0::SimdFloatSqrt            0      0.00%     75.22% # Class of committed instruction
system.cpu.commit.op_class_0::SimdReduceAdd            0      0.00%     75.22% # Class of committed instruction
system.cpu.commit.op_class_0::SimdReduceAlu            0      0.00%     75.22% # Class of committed instruction
system.cpu.commit.op_class_0::SimdReduceCmp            0      0.00%     75.22% # Class of committed instruction
system.cpu.commit.op_class_0::SimdFloatReduceAdd            0      0.00%     75.22% # Class of committed instruction
system.cpu.commit.op_class_0::SimdFloatReduceCmp            0      0.00%     75.22% # Class of committed instruction
system.cpu.commit.op_class_0::SimdAes               0      0.00%     75.22% # Class of committed instruction
system.cpu.commit.op_class_0::SimdAesMix            0      0.00%     75.22% # Class of committed instruction
system.cpu.commit.op_class_0::SimdSha1Hash            0      0.00%     75.22% # Class of committed instruction
system.cpu.commit.op_class_0::SimdSha1Hash2            0      0.00%     75.22% # Class of committed instruction
system.cpu.commit.op_class_0::SimdSha256Hash            0      0.00%     75.22% # Class of committed instruction
system.cpu.commit.op_class_0::SimdSha256Hash2            0      0.00%     75.22% # Class of committed instruction
system.cpu.commit.op_class_0::SimdShaSigma2            0      0.00%     75.22% # Class of committed instruction
system.cpu.commit.op_class_0::SimdShaSigma3            0      0.00%     75.22% # Class of committed instruction
system.cpu.commit.op_class_0::SimdPredAlu            0      0.00%     75.22% # Class of committed instruction
system.cpu.commit.op_class_0::MemRead          875126     10.68%     85.90% # Class of committed instruction
system.cpu.commit.op_class_0::MemWrite         490301      5.99%     91.89% # Class of committed instruction
system.cpu.commit.op_class_0::FloatMemRead       343762      4.20%     96.08% # Class of committed instruction
system.cpu.commit.op_class_0::FloatMemWrite       320783      3.92%    100.00% # Class of committed instruction
system.cpu.commit.op_class_0::IprAccess             0      0.00%    100.00% # Class of committed instruction
system.cpu.commit.op_class_0::InstPrefetch            0      0.00%    100.00% # Class of committed instruction
system.cpu.commit.op_class_0::total           8191376                       # Class of committed instruction
system.cpu.commit.refs                        2029972                       # Number of memory references committed
system.cpu.commit.swp_count                         0                       # Number of s/w prefetches committed
system.cpu.commit.vec_insts                         0                       # Number of committed Vector instructions.
system.cpu.committedInsts                     4279836                       # Number of Instructions Simulated
system.cpu.committedOps                       8191376                       # Number of Ops (including micro ops) Simulated
system.cpu.cpi                               3.413230                       # CPI: Cycles Per Instruction
system.cpu.cpi_total                         3.413230                       # CPI: Total CPI of All Threads
system.cpu.dcache.prefetcher.num_hwpf_issued        28229                       # number of hwpf issued
system.cpu.dcache.prefetcher.pfBufferHit        38280                       # number of redundant prefetches already in prefetch queue
system.cpu.dcache.prefetcher.pfIdentified        74461                       # number of prefetch candidates identified
system.cpu.dcache.prefetcher.pfInCache              0                       # number of redundant prefetches already in cache/mshr dropped
system.cpu.dcache.prefetcher.pfRemovedFull            0                       # number of prefetches dropped due to prefetch queue size
system.cpu.dcache.prefetcher.pfSpanPage          5067                       # number of prefetches that crossed the page
system.cpu.decode.BlockedCycles               6397931                       # Number of cycles decode is blocked
system.cpu.decode.DecodedInsts               26001571                       # Number of instructions handled by decode
system.cpu.decode.IdleCycles                  1078573                       # Number of cycles decode is idle
system.cpu.decode.RunCycles                   6291500                       # Number of cycles decode is running
system.cpu.decode.SquashCycles                 185980                       # Number of cycles decode is squashing
system.cpu.decode.UnblockCycles                402371                       # Number of cycles decode is unblocking
system.cpu.dtb.rdAccesses                     5103927                       # TLB accesses on read requests
system.cpu.dtb.rdMisses                          3063                       # TLB misses on read requests
system.cpu.dtb.wrAccesses                     5422475                       # TLB accesses on write requests
system.cpu.dtb.wrMisses                           798                       # TLB misses on write requests
system.cpu.fetch.Branches                     1436407                       # Number of branches that fetch encountered
system.cpu.fetch.CacheLines                   1514513                       # Number of cache lines fetched
system.cpu.fetch.Cycles                      12371903                       # Number of cycles fetch has run and was not squashing or blocked
system.cpu.fetch.IcacheSquashes                  7579                       # Number of outstanding Icache misses that were squashed
system.cpu.fetch.IcacheWaitRetryStallCycles           32                       # Number of stall cycles due to full MSHR
system.cpu.fetch.Insts                       12408916                       # Number of instructions fetch has processed
system.cpu.fetch.MiscStallCycles                   61                       # Number of cycles fetch has spent waiting on interrupts, or bad addresses, or out of MSHRs
system.cpu.fetch.PendingQuiesceStallCycles            6                       # Number of stall cycles due to pending quiesce instructions
system.cpu.fetch.PendingTrapStallCycles           392                       # Number of stall cycles due to pending traps
system.cpu.fetch.SquashCycles                  371960                       # Number of cycles fetch has spent squashing
system.cpu.fetch.branchRate                  0.098330                       # Number of branch fetches per cycle
system.cpu.fetch.icacheStallCycles            1797981                       # Number of cycles fetch is stalled on an Icache miss
system.cpu.fetch.predictedBranches             988994                       # Number of branches that fetch has predicted taken
system.cpu.fetch.rate                        0.849457                       # Number of inst fetches per cycle
system.cpu.fetch.rateDist::samples           14356355                       # Number of instructions fetched each cycle (Total)
system.cpu.fetch.rateDist::mean              1.949160                       # Number of instructions fetched each cycle (Total)
system.cpu.fetch.rateDist::stdev             1.906842                       # Number of instructions fetched each cycle (Total)
system.cpu.fetch.rateDist::underflows               0      0.00%      0.00% # Number of instructions fetched each cycle (Total)
system.cpu.fetch.rateDist::0                  6696429     46.64%     46.64% # Number of instructions fetched each cycle (Total)
system.cpu.fetch.rateDist::1                   199758      1.39%     48.04% # Number of instructions fetched each cycle (Total)
system.cpu.fetch.rateDist::2                   792074      5.52%     53.55% # Number of instructions fetched each cycle (Total)
system.cpu.fetch.rateDist::3                   473455      3.30%     56.85% # Number of instructions fetched each cycle (Total)
system.cpu.fetch.rateDist::4                  6194639     43.15%    100.00% # Number of instructions fetched each cycle (Total)
system.cpu.fetch.rateDist::overflows                0      0.00%    100.00% # Number of instructions fetched each cycle (Total)
system.cpu.fetch.rateDist::min_value                0                       # Number of instructions fetched each cycle (Total)
system.cpu.fetch.rateDist::max_value                4                       # Number of instructions fetched each cycle (Total)
system.cpu.fetch.rateDist::total             14356355                       # Number of instructions fetched each cycle (Total)
system.cpu.fp_regfile_reads                   3703460                       # number of floating regfile reads
system.cpu.fp_regfile_writes                  3076687                       # number of floating regfile writes
system.cpu.fuPool.fu_ticks_busy::IntALU(0)    708432800                       # Total ticks fu was busy
system.cpu.fuPool.fu_ticks_busy::IntALU(1)    708432800                       # Total ticks fu was busy
system.cpu.fuPool.fu_ticks_busy::IntALU(2)    708432800                       # Total ticks fu was busy
system.cpu.fuPool.fu_ticks_busy::IntALU(3)    708432400                       # Total ticks fu was busy
system.cpu.fuPool.fu_ticks_busy::IntALU(4)    708432400                       # Total ticks fu was busy
system.cpu.fuPool.fu_ticks_busy::IntALU(5)    708432400                       # Total ticks fu was busy
system.cpu.fuPool.fu_ticks_busy::IntMultDiv(0)     13433600                       # Total ticks fu was busy
system.cpu.fuPool.fu_ticks_busy::IntMultDiv(1)     13432400                       # Total ticks fu was busy
system.cpu.fuPool.fu_ticks_busy::FP_ALU(0)      1123600                       # Total ticks fu was busy
system.cpu.fuPool.fu_ticks_busy::FP_ALU(1)      1123600                       # Total ticks fu was busy
system.cpu.fuPool.fu_ticks_busy::FP_ALU(2)      1123600                       # Total ticks fu was busy
system.cpu.fuPool.fu_ticks_busy::FP_ALU(3)      1123600                       # Total ticks fu was busy
system.cpu.fuPool.fu_ticks_busy::FP_MultDiv(0)            0                       # Total ticks fu was busy
system.cpu.fuPool.fu_ticks_busy::FP_MultDiv(1)            0                       # Total ticks fu was busy
system.cpu.fuPool.fu_ticks_busy::SIMD_Unit(0)     14831200                       # Total ticks fu was busy
system.cpu.fuPool.fu_ticks_busy::SIMD_Unit(1)     14851200                       # Total ticks fu was busy
system.cpu.fuPool.fu_ticks_busy::SIMD_Unit(2)     14726400                       # Total ticks fu was busy
system.cpu.fuPool.fu_ticks_busy::SIMD_Unit(3)     14778800                       # Total ticks fu was busy
system.cpu.fuPool.fu_ticks_busy::PredALU(0)            0                       # Total ticks fu was busy
system.cpu.fuPool.fu_ticks_busy::RdWrPort(0)   1065508800                       # Total ticks fu was busy
system.cpu.fuPool.fu_ticks_busy::RdWrPort(1)   1140393600                       # Total ticks fu was busy
system.cpu.fuPool.fu_ticks_busy::RdWrPort(2)   1080485200                       # Total ticks fu was busy
system.cpu.fuPool.fu_ticks_busy::RdWrPort(3)   1125391600                       # Total ticks fu was busy
system.cpu.fuPool.fu_ticks_busy::IprPort(0)            0                       # Total ticks fu was busy
system.cpu.fuPool.fu_ticks_busy::total     8752922800                       # Total ticks fu was busy
system.cpu.icache.prefetcher.num_hwpf_issued            0                       # number of hwpf issued
system.cpu.icache.prefetcher.pfBufferHit            0                       # number of redundant prefetches already in prefetch queue
system.cpu.icache.prefetcher.pfIdentified            0                       # number of prefetch candidates identified
system.cpu.icache.prefetcher.pfInCache              0                       # number of redundant prefetches already in cache/mshr dropped
system.cpu.icache.prefetcher.pfRemovedFull            0                       # number of prefetches dropped due to prefetch queue size
system.cpu.icache.prefetcher.pfSpanPage             0                       # number of prefetches that crossed the page
system.cpu.idleCycles                          251709                       # Total number of cycles that the CPU has spent unscheduled due to idling
system.cpu.iew.branchMispredicts                40543                       # Number of branch mispredicts detected at execute
system.cpu.iew.exec_branches                  1238706                       # Number of branches executed
system.cpu.iew.exec_nop                             0                       # number of nop insts executed
system.cpu.iew.exec_rate                     1.572141                       # Inst execution rate
system.cpu.iew.exec_refs                     10522247                       # number of memory reference insts executed
system.cpu.iew.exec_stores                    5422461                       # Number of stores executed
system.cpu.iew.exec_swp                             0                       # number of swp insts executed
system.cpu.iew.iewBlockCycles                 2702711                       # Number of cycles IEW is blocking
system.cpu.iew.iewDispLoadInsts               5511687                       # Number of dispatched load instructions
system.cpu.iew.iewDispNonSpecInsts               1131                       # Number of dispatched non-speculative instructions
system.cpu.iew.iewDispSquashedInsts               724                       # Number of squashed instructions skipped by dispatch
system.cpu.iew.iewDispStoreInsts              5627174                       # Number of dispatched store instructions
system.cpu.iew.iewDispatchedInsts            24171786                       # Number of instructions dispatched to IQ
system.cpu.iew.iewExecLoadInsts               5099786                       # Number of load instructions executed
system.cpu.iew.iewExecSquashedInsts            578784                       # Number of squashed instructions skipped in execute
system.cpu.iew.iewExecutedInsts              22965942                       # Number of executed instructions
system.cpu.iew.iewIQFullEvents                   3732                       # Number of times the IQ has become full, causing a stall
system.cpu.iew.iewIdleCycles                        0                       # Number of cycles IEW is idle
system.cpu.iew.iewLSQFullEvents                216728                       # Number of times the LSQ has become full, causing a stall
system.cpu.iew.iewSquashCycles                 185980                       # Number of cycles IEW is squashing
system.cpu.iew.iewUnblockCycles                204792                       # Number of cycles IEW is unblocking
system.cpu.iew.lsq.thread0.blockedLoads             0                       # Number of blocked loads due to partial load-store forwarding
system.cpu.iew.lsq.thread0.cacheBlocked           642                       # Number of times an access to memory failed due to the cache being blocked
system.cpu.iew.lsq.thread0.forwLoads            62808                       # Number of loads that had data forwarded from stores
system.cpu.iew.lsq.thread0.ignoredResponses          284                       # Number of memory responses ignored because the instruction is squashed
system.cpu.iew.lsq.thread0.invAddrLoads             0                       # Number of loads ignored due to an invalid address
system.cpu.iew.lsq.thread0.invAddrSwpfs             0                       # Number of software prefetches ignored due to an invalid address
system.cpu.iew.lsq.thread0.memOrderViolation          107                       # Number of memory ordering violations
system.cpu.iew.lsq.thread0.rescheduledLoads          244                       # Number of loads that were rescheduled
system.cpu.iew.lsq.thread0.squashedLoads      4292797                       # Number of loads squashed
system.cpu.iew.lsq.thread0.squashedStores      4816089                       # Number of stores squashed
system.cpu.iew.memOrderViolationEvents            107                       # Number of memory order violations
system.cpu.iew.predictedNotTakenIncorrect        29582                       # Number of branches that were predicted not taken incorrectly
system.cpu.iew.predictedTakenIncorrect          10961                       # Number of branches that were predicted taken incorrectly
system.cpu.iew.wb_consumers                  14929242                       # num instructions consuming a value
system.cpu.iew.wb_count                      20759598                       # cumulative count of insts written-back
system.cpu.iew.wb_fanout                     0.703781                       # average fanout of values written-back
system.cpu.iew.wb_producers                  10506917                       # num instructions producing a value
system.cpu.iew.wb_rate                       1.421105                       # insts written-back per cycle
system.cpu.iew.wb_sent                       22475743                       # cumulative count of insts sent to commit
system.cpu.int_regfile_reads                 34895131                       # number of integer regfile reads
system.cpu.int_regfile_writes                11268470                       # number of integer regfile writes
system.cpu.ipc                               0.292978                       # IPC: Instructions Per Cycle
system.cpu.ipc_total                         0.292978                       # IPC: Total IPC of All Threads
system.cpu.iq.FU_type_0::No_OpClass           1662419      7.06%      7.06% # Type of FU issued
system.cpu.iq.FU_type_0::IntAlu              10626490     45.13%     52.19% # Type of FU issued
system.cpu.iq.FU_type_0::IntMult                 1778      0.01%     52.20% # Type of FU issued
system.cpu.iq.FU_type_0::IntDiv                 65387      0.28%     52.48% # Type of FU issued
system.cpu.iq.FU_type_0::FloatAdd                9700      0.04%     52.52% # Type of FU issued
system.cpu.iq.FU_type_0::FloatCmp                   0      0.00%     52.52% # Type of FU issued
system.cpu.iq.FU_type_0::FloatCvt                1536      0.01%     52.53% # Type of FU issued
system.cpu.iq.FU_type_0::FloatMult                  0      0.00%     52.53% # Type of FU issued
system.cpu.iq.FU_type_0::FloatMultAcc               0      0.00%     52.53% # Type of FU issued
system.cpu.iq.FU_type_0::FloatDiv                   0      0.00%     52.53% # Type of FU issued
system.cpu.iq.FU_type_0::FloatMisc                  0      0.00%     52.53% # Type of FU issued
system.cpu.iq.FU_type_0::FloatSqrt                  0      0.00%     52.53% # Type of FU issued
system.cpu.iq.FU_type_0::SimdAdd                13694      0.06%     52.59% # Type of FU issued
system.cpu.iq.FU_type_0::SimdAddAcc                 0      0.00%     52.59% # Type of FU issued
system.cpu.iq.FU_type_0::SimdAlu                69603      0.30%     52.88% # Type of FU issued
system.cpu.iq.FU_type_0::SimdCmp                    0      0.00%     52.88% # Type of FU issued
system.cpu.iq.FU_type_0::SimdCvt                30831      0.13%     53.01% # Type of FU issued
system.cpu.iq.FU_type_0::SimdMisc               26663      0.11%     53.12% # Type of FU issued
system.cpu.iq.FU_type_0::SimdMult                   0      0.00%     53.12% # Type of FU issued
system.cpu.iq.FU_type_0::SimdMultAcc                0      0.00%     53.12% # Type of FU issued
system.cpu.iq.FU_type_0::SimdShift               2567      0.01%     53.14% # Type of FU issued
system.cpu.iq.FU_type_0::SimdShiftAcc               0      0.00%     53.14% # Type of FU issued
system.cpu.iq.FU_type_0::SimdDiv                    0      0.00%     53.14% # Type of FU issued
system.cpu.iq.FU_type_0::SimdSqrt                   0      0.00%     53.14% # Type of FU issued
system.cpu.iq.FU_type_0::SimdFloatAdd             650      0.00%     53.14% # Type of FU issued
system.cpu.iq.FU_type_0::SimdFloatAlu               0      0.00%     53.14% # Type of FU issued
system.cpu.iq.FU_type_0::SimdFloatCmp               0      0.00%     53.14% # Type of FU issued
system.cpu.iq.FU_type_0::SimdFloatCvt            3961      0.02%     53.16% # Type of FU issued
system.cpu.iq.FU_type_0::SimdFloatDiv               0      0.00%     53.16% # Type of FU issued
system.cpu.iq.FU_type_0::SimdFloatMisc              0      0.00%     53.16% # Type of FU issued
system.cpu.iq.FU_type_0::SimdFloatMult              0      0.00%     53.16% # Type of FU issued
system.cpu.iq.FU_type_0::SimdFloatMultAcc            0      0.00%     53.16% # Type of FU issued
system.cpu.iq.FU_type_0::SimdFloatSqrt              0      0.00%     53.16% # Type of FU issued
system.cpu.iq.FU_type_0::SimdReduceAdd              0      0.00%     53.16% # Type of FU issued
system.cpu.iq.FU_type_0::SimdReduceAlu              0      0.00%     53.16% # Type of FU issued
system.cpu.iq.FU_type_0::SimdReduceCmp              0      0.00%     53.16% # Type of FU issued
system.cpu.iq.FU_type_0::SimdFloatReduceAdd            0      0.00%     53.16% # Type of FU issued
system.cpu.iq.FU_type_0::SimdFloatReduceCmp            0      0.00%     53.16% # Type of FU issued
system.cpu.iq.FU_type_0::SimdAes                    0      0.00%     53.16% # Type of FU issued
system.cpu.iq.FU_type_0::SimdAesMix                 0      0.00%     53.16% # Type of FU issued
system.cpu.iq.FU_type_0::SimdSha1Hash               0      0.00%     53.16% # Type of FU issued
system.cpu.iq.FU_type_0::SimdSha1Hash2              0      0.00%     53.16% # Type of FU issued
system.cpu.iq.FU_type_0::SimdSha256Hash             0      0.00%     53.16% # Type of FU issued
system.cpu.iq.FU_type_0::SimdSha256Hash2            0      0.00%     53.16% # Type of FU issued
system.cpu.iq.FU_type_0::SimdShaSigma2              0      0.00%     53.16% # Type of FU issued
system.cpu.iq.FU_type_0::SimdShaSigma3              0      0.00%     53.16% # Type of FU issued
system.cpu.iq.FU_type_0::SimdPredAlu                0      0.00%     53.16% # Type of FU issued
system.cpu.iq.FU_type_0::MemRead              1805627      7.67%     60.82% # Type of FU issued
system.cpu.iq.FU_type_0::MemWrite             2107356      8.95%     69.77% # Type of FU issued
system.cpu.iq.FU_type_0::FloatMemRead         3683778     15.65%     85.42% # Type of FU issued
system.cpu.iq.FU_type_0::FloatMemWrite        3432689     14.58%    100.00% # Type of FU issued
system.cpu.iq.FU_type_0::IprAccess                  0      0.00%    100.00% # Type of FU issued
system.cpu.iq.FU_type_0::InstPrefetch               0      0.00%    100.00% # Type of FU issued
system.cpu.iq.FU_type_0::total               23544729                       # Type of FU issued
system.cpu.iq.fp_alu_accesses                 7286100                       # Number of floating point alu accesses
system.cpu.iq.fp_inst_queue_reads            14648692                       # Number of floating instruction queue reads
system.cpu.iq.fp_inst_queue_wakeup_accesses      6413050                       # Number of floating instruction queue wakeup accesses
system.cpu.iq.fp_inst_queue_writes           13930460                       # Number of floating instruction queue writes
system.cpu.iq.fu_busy_cnt                           0                       # FU busy when requested
system.cpu.iq.fu_busy_rate                          0                       # FU busy rate (busy events/executed inst)
system.cpu.iq.fu_full::No_OpClass                   0                       # attempts to use FU when none available
system.cpu.iq.fu_full::IntAlu                       0                       # attempts to use FU when none available
system.cpu.iq.fu_full::IntMult                      0                       # attempts to use FU when none available
system.cpu.iq.fu_full::IntDiv                       0                       # attempts to use FU when none available
system.cpu.iq.fu_full::FloatAdd                     0                       # attempts to use FU when none available
system.cpu.iq.fu_full::FloatCmp                     0                       # attempts to use FU when none available
system.cpu.iq.fu_full::FloatCvt                     0                       # attempts to use FU when none available
system.cpu.iq.fu_full::FloatMult                    0                       # attempts to use FU when none available
system.cpu.iq.fu_full::FloatMultAcc                 0                       # attempts to use FU when none available
system.cpu.iq.fu_full::FloatDiv                     0                       # attempts to use FU when none available
system.cpu.iq.fu_full::FloatMisc                    0                       # attempts to use FU when none available
system.cpu.iq.fu_full::FloatSqrt                    0                       # attempts to use FU when none available
system.cpu.iq.fu_full::SimdAdd                      0                       # attempts to use FU when none available
system.cpu.iq.fu_full::SimdAddAcc                   0                       # attempts to use FU when none available
system.cpu.iq.fu_full::SimdAlu                      0                       # attempts to use FU when none available
system.cpu.iq.fu_full::SimdCmp                      0                       # attempts to use FU when none available
system.cpu.iq.fu_full::SimdCvt                      0                       # attempts to use FU when none available
system.cpu.iq.fu_full::SimdMisc                     0                       # attempts to use FU when none available
system.cpu.iq.fu_full::SimdMult                     0                       # attempts to use FU when none available
system.cpu.iq.fu_full::SimdMultAcc                  0                       # attempts to use FU when none available
system.cpu.iq.fu_full::SimdShift                    0                       # attempts to use FU when none available
system.cpu.iq.fu_full::SimdShiftAcc                 0                       # attempts to use FU when none available
system.cpu.iq.fu_full::SimdDiv                      0                       # attempts to use FU when none available
system.cpu.iq.fu_full::SimdSqrt                     0                       # attempts to use FU when none available
system.cpu.iq.fu_full::SimdFloatAdd                 0                       # attempts to use FU when none available
system.cpu.iq.fu_full::SimdFloatAlu                 0                       # attempts to use FU when none available
system.cpu.iq.fu_full::SimdFloatCmp                 0                       # attempts to use FU when none available
system.cpu.iq.fu_full::SimdFloatCvt                 0                       # attempts to use FU when none available
system.cpu.iq.fu_full::SimdFloatDiv                 0                       # attempts to use FU when none available
system.cpu.iq.fu_full::SimdFloatMisc                0                       # attempts to use FU when none available
system.cpu.iq.fu_full::SimdFloatMult                0                       # attempts to use FU when none available
system.cpu.iq.fu_full::SimdFloatMultAcc             0                       # attempts to use FU when none available
system.cpu.iq.fu_full::SimdFloatSqrt                0                       # attempts to use FU when none available
system.cpu.iq.fu_full::SimdReduceAdd                0                       # attempts to use FU when none available
system.cpu.iq.fu_full::SimdReduceAlu                0                       # attempts to use FU when none available
system.cpu.iq.fu_full::SimdReduceCmp                0                       # attempts to use FU when none available
system.cpu.iq.fu_full::SimdFloatReduceAdd            0                       # attempts to use FU when none available
system.cpu.iq.fu_full::SimdFloatReduceCmp            0                       # attempts to use FU when none available
system.cpu.iq.fu_full::SimdAes                      0                       # attempts to use FU when none available
system.cpu.iq.fu_full::SimdAesMix                   0                       # attempts to use FU when none available
system.cpu.iq.fu_full::SimdSha1Hash                 0                       # attempts to use FU when none available
system.cpu.iq.fu_full::SimdSha1Hash2                0                       # attempts to use FU when none available
system.cpu.iq.fu_full::SimdSha256Hash               0                       # attempts to use FU when none available
system.cpu.iq.fu_full::SimdSha256Hash2              0                       # attempts to use FU when none available
system.cpu.iq.fu_full::SimdShaSigma2                0                       # attempts to use FU when none available
system.cpu.iq.fu_full::SimdShaSigma3                0                       # attempts to use FU when none available
system.cpu.iq.fu_full::SimdPredAlu                  0                       # attempts to use FU when none available
system.cpu.iq.fu_full::MemRead                      0                       # attempts to use FU when none available
system.cpu.iq.fu_full::MemWrite                     0                       # attempts to use FU when none available
system.cpu.iq.fu_full::FloatMemRead                 0                       # attempts to use FU when none available
system.cpu.iq.fu_full::FloatMemWrite                0                       # attempts to use FU when none available
system.cpu.iq.fu_full::IprAccess                    0                       # attempts to use FU when none available
system.cpu.iq.fu_full::InstPrefetch                 0                       # attempts to use FU when none available
system.cpu.iq.int_alu_accesses               14596210                       # Number of integer alu accesses
system.cpu.iq.int_inst_queue_reads           46986740                       # Number of integer instruction queue reads
system.cpu.iq.int_inst_queue_wakeup_accesses     14346548                       # Number of integer instruction queue wakeup accesses
system.cpu.iq.int_inst_queue_writes          26221832                       # Number of integer instruction queue writes
system.cpu.iq.iqInstsAdded                   24170236                       # Number of instructions added to the IQ (excludes non-spec)
system.cpu.iq.iqInstsIssued                  23544729                       # Number of instructions issued
system.cpu.iq.iqNonSpecInstsAdded                1550                       # Number of non-speculative instructions added to the IQ
system.cpu.iq.iqSquashedInstsExamined        15980399                       # Number of squashed instructions iterated over during squash; mainly for profiling
system.cpu.iq.iqSquashedInstsIssued            189622                       # Number of squashed instructions issued
system.cpu.iq.iqSquashedNonSpecRemoved            634                       # Number of squashed non-spec instructions that were removed
system.cpu.iq.iqSquashedOperandsExamined      5565200                       # Number of squashed operands that are examined and possibly removed from graph
system.cpu.iq.issued_per_cycle::samples      14356355                       # Number of insts issued each cycle
system.cpu.iq.issued_per_cycle::mean         1.640021                       # Number of insts issued each cycle
system.cpu.iq.issued_per_cycle::stdev        1.839580                       # Number of insts issued each cycle
system.cpu.iq.issued_per_cycle::underflows            0      0.00%      0.00% # Number of insts issued each cycle
system.cpu.iq.issued_per_cycle::0             7544333     52.55%     52.55% # Number of insts issued each cycle
system.cpu.iq.issued_per_cycle::1              483657      3.37%     55.92% # Number of insts issued each cycle
system.cpu.iq.issued_per_cycle::2              612869      4.27%     60.19% # Number of insts issued each cycle
system.cpu.iq.issued_per_cycle::3             1026650      7.15%     67.34% # Number of insts issued each cycle
system.cpu.iq.issued_per_cycle::4             4688846     32.66%    100.00% # Number of insts issued each cycle
system.cpu.iq.issued_per_cycle::overflows            0      0.00%    100.00% # Number of insts issued each cycle
system.cpu.iq.issued_per_cycle::min_value            0                       # Number of insts issued each cycle
system.cpu.iq.issued_per_cycle::max_value            4                       # Number of insts issued each cycle
system.cpu.iq.issued_per_cycle::total        14356355                       # Number of insts issued each cycle
system.cpu.iq.rate                           1.611762                       # Inst issue rate
system.cpu.iq.vec_alu_accesses                      0                       # Number of vector alu accesses
system.cpu.iq.vec_inst_queue_reads                  0                       # Number of vector instruction queue reads
system.cpu.iq.vec_inst_queue_wakeup_accesses            0                       # Number of vector instruction queue wakeup accesses
system.cpu.iq.vec_inst_queue_writes                 0                       # Number of vector instruction queue writes
system.cpu.itb.rdAccesses                           0                       # TLB accesses on read requests
system.cpu.itb.rdMisses                             0                       # TLB misses on read requests
system.cpu.itb.wrAccesses                     1514580                       # TLB accesses on write requests
system.cpu.itb.wrMisses                           350                       # TLB misses on write requests
system.cpu.memDep0.conflictingLoads             13728                       # Number of conflicting loads.
system.cpu.memDep0.conflictingStores            19181                       # Number of conflicting stores.
system.cpu.memDep0.insertedLoads              5511687                       # Number of loads inserted to the mem dependence unit.
system.cpu.memDep0.insertedStores             5627174                       # Number of stores inserted to the mem dependence unit.
system.cpu.misc_regfile_reads                13021337                       # number of misc regfile reads
system.cpu.misc_regfile_writes                    792                       # number of misc regfile writes
system.cpu.numCycles                         14608064                       # number of cpu cycles simulated
system.cpu.numWorkItemsCompleted                    0                       # number of work items this cpu completed
system.cpu.numWorkItemsStarted                      0                       # number of work items this cpu started
system.cpu.process.numSyscalls                     71                       # Number of system calls
system.cpu.rename.BlockCycles                 3055719                       # Number of cycles rename is blocking
system.cpu.rename.CommittedMaps               9804737                       # Number of HB maps that are committed
system.cpu.rename.FullRegisterEvents              190                       # Number of times there has been no free registers
system.cpu.rename.IQFullEvents                  49038                       # Number of times rename has blocked due to IQ full
system.cpu.rename.IdleCycles                  1307332                       # Number of cycles rename is idle
system.cpu.rename.LQFullEvents                  11611                       # Number of times rename has blocked due to LQ full
system.cpu.rename.ROBFullEvents                  5579                       # Number of times rename has blocked due to ROB full
system.cpu.rename.RenameLookups              63503466                       # Number of register rename lookups that rename has made
system.cpu.rename.RenamedInsts               24957069                       # Number of instructions processed by rename
system.cpu.rename.RenamedOperands            23105446                       # Number of destination operands rename has renamed
system.cpu.rename.RunCycles                   6341041                       # Number of cycles rename is running
system.cpu.rename.SQFullEvents                3361004                       # Number of times rename has blocked due to SQ full
system.cpu.rename.SquashCycles                 185980                       # Number of cycles rename is squashing
system.cpu.rename.UnblockCycles               3444393                       # Number of cycles rename is unblocking
system.cpu.rename.UndoneMaps                 13300686                       # Number of HB maps that are undone due to squashing
system.cpu.rename.fp_rename_lookups           4010458                       # Number of floating rename lookups
system.cpu.rename.int_rename_lookups         38077661                       # Number of integer rename lookups
system.cpu.rename.serializeStallCycles          21890                       # count of cycles rename stalled for serializing inst
system.cpu.rename.serializingInsts               1017                       # count of serializing insts renamed
system.cpu.rename.skidInsts                   1335114                       # count of insts added to the skid buffer
system.cpu.rename.tempSerializingInsts           1072                       # count of temporary serializing insts renamed
system.cpu.rob.rob_reads                     25945039                       # The number of ROB reads
system.cpu.rob.rob_writes                    36852733                       # The number of ROB writes
system.cpu.timesIdled                            7828                       # Number of times that the entire CPU went into an idle state and unscheduled itself
system.l2bus.snoop_filter.hit_multi_requests           20                       # Number of requests hitting in the snoop filter with multiple (>1) holders of the requested data.
system.l2bus.snoop_filter.hit_multi_snoops            3                       # Number of snoops hitting in the snoop filter with multiple (>1) holders of the requested data.
system.l2bus.snoop_filter.hit_single_requests       105827                       # Number of requests hitting in the snoop filter with a single holder of the requested data.
system.l2bus.snoop_filter.hit_single_snoops          783                       # Number of snoops hitting in the snoop filter with a single holder of the requested data.
system.l2bus.snoop_filter.tot_requests         212934                       # Total number of requests made to the snoop filter.
system.l2bus.snoop_filter.tot_snoops              786                       # Total number of snoops made to the snoop filter.
system.l2cache.prefetcher.num_hwpf_issued        22034                       # number of hwpf issued
system.l2cache.prefetcher.pfBufferHit               0                       # number of redundant prefetches already in prefetch queue
system.l2cache.prefetcher.pfIdentified          22035                       # number of prefetch candidates identified
system.l2cache.prefetcher.pfInCache                 0                       # number of redundant prefetches already in cache/mshr dropped
system.l2cache.prefetcher.pfRemovedFull             0                       # number of prefetches dropped due to prefetch queue size
system.l2cache.prefetcher.pfSpanPage             2389                       # number of prefetches that crossed the page
system.membus.snoop_filter.hit_multi_requests            0                       # Number of requests hitting in the snoop filter with multiple (>1) holders of the requested data.
system.membus.snoop_filter.hit_multi_snoops            0                       # Number of snoops hitting in the snoop filter with multiple (>1) holders of the requested data.
system.membus.snoop_filter.hit_single_requests        86836                       # Number of requests hitting in the snoop filter with a single holder of the requested data.
system.membus.snoop_filter.hit_single_snoops            0                       # Number of snoops hitting in the snoop filter with a single holder of the requested data.
system.membus.snoop_filter.tot_requests        177809                       # Total number of requests made to the snoop filter.
system.membus.snoop_filter.tot_snoops               0                       # Total number of snoops made to the snoop filter.
system.membus.pwrStateResidencyTicks::UNDEFINED   5843225200                       # Cumulative time (in ticks) in various power states
system.membus.trans_dist::ReadResp              70352                       # Transaction distribution
system.membus.trans_dist::WritebackDirty        38593                       # Transaction distribution
system.membus.trans_dist::CleanEvict            48241                       # Transaction distribution
system.membus.trans_dist::UpgradeReq                1                       # Transaction distribution
system.membus.trans_dist::ReadExReq             20622                       # Transaction distribution
system.membus.trans_dist::ReadExResp            20622                       # Transaction distribution
system.membus.trans_dist::ReadSharedReq         70352                       # Transaction distribution
system.membus.pkt_count_system.l2cache.mem_side::system.mem_ctrl.port       268783                       # Packet count per connected master and slave (bytes)
system.membus.pkt_count_system.l2cache.mem_side::total       268783                       # Packet count per connected master and slave (bytes)
system.membus.pkt_count::total                 268783                       # Packet count per connected master and slave (bytes)
system.membus.pkt_size_system.l2cache.mem_side::system.mem_ctrl.port      8292288                       # Cumulative packet size per connected master and slave (bytes)
system.membus.pkt_size_system.l2cache.mem_side::total      8292288                       # Cumulative packet size per connected master and slave (bytes)
system.membus.pkt_size::total                 8292288                       # Cumulative packet size per connected master and slave (bytes)
system.membus.snoops                                0                       # Total snoops (count)
system.membus.snoopTraffic                          0                       # Total snoop traffic (bytes)
system.membus.snoop_fanout::samples             90975                       # Request fanout histogram
system.membus.snoop_fanout::mean                    0                       # Request fanout histogram
system.membus.snoop_fanout::stdev                   0                       # Request fanout histogram
system.membus.snoop_fanout::underflows              0      0.00%      0.00% # Request fanout histogram
system.membus.snoop_fanout::0                   90975    100.00%    100.00% # Request fanout histogram
system.membus.snoop_fanout::1                       0      0.00%    100.00% # Request fanout histogram
system.membus.snoop_fanout::overflows               0      0.00%    100.00% # Request fanout histogram
system.membus.snoop_fanout::min_value               0                       # Request fanout histogram
system.membus.snoop_fanout::max_value               0                       # Request fanout histogram
system.membus.snoop_fanout::total               90975                       # Request fanout histogram
system.membus.reqLayer2.occupancy           134033287                       # Layer occupancy (ticks)
system.membus.reqLayer2.utilization               2.3                       # Layer utilization (%)
system.membus.respLayer0.occupancy          196278613                       # Layer occupancy (ticks)
system.membus.respLayer0.utilization              3.4                       # Layer utilization (%)
system.l2bus.pwrStateResidencyTicks::UNDEFINED   5843225200                       # Cumulative time (in ticks) in various power states
system.l2bus.trans_dist::ReadResp               85670                       # Transaction distribution
system.l2bus.trans_dist::WritebackDirty         79879                       # Transaction distribution
system.l2bus.trans_dist::CleanEvict            112930                       # Transaction distribution
system.l2bus.trans_dist::HardPFReq              33606                       # Transaction distribution
system.l2bus.trans_dist::UpgradeReq                 2                       # Transaction distribution
system.l2bus.trans_dist::UpgradeResp                2                       # Transaction distribution
system.l2bus.trans_dist::ReadExReq              21437                       # Transaction distribution
system.l2bus.trans_dist::ReadExResp             21437                       # Transaction distribution
system.l2bus.trans_dist::ReadSharedReq          85670                       # Transaction distribution
system.l2bus.pkt_count_system.cpu.icache.mem_side::system.l2cache.cpu_side        38193                       # Packet count per connected master and slave (bytes)
system.l2bus.pkt_count_system.cpu.dcache.mem_side::system.l2cache.cpu_side       281844                       # Packet count per connected master and slave (bytes)
system.l2bus.pkt_count::total                  320037                       # Packet count per connected master and slave (bytes)
system.l2bus.pkt_size_system.cpu.icache.mem_side::system.l2cache.cpu_side       820032                       # Cumulative packet size per connected master and slave (bytes)
system.l2bus.pkt_size_system.cpu.dcache.mem_side::system.l2cache.cpu_side      8676736                       # Cumulative packet size per connected master and slave (bytes)
system.l2bus.pkt_size::total                  9496768                       # Cumulative packet size per connected master and slave (bytes)
system.l2bus.snoops                            120596                       # Total snoops (count)
system.l2bus.snoopTraffic                     2470336                       # Total snoop traffic (bytes)
system.l2bus.snoop_fanout::samples             227699                       # Request fanout histogram
system.l2bus.snoop_fanout::mean              0.003562                       # Request fanout histogram
system.l2bus.snoop_fanout::stdev             0.059795                       # Request fanout histogram
system.l2bus.snoop_fanout::underflows               0      0.00%      0.00% # Request fanout histogram
system.l2bus.snoop_fanout::0                   226891     99.65%     99.65% # Request fanout histogram
system.l2bus.snoop_fanout::1                      805      0.35%    100.00% # Request fanout histogram
system.l2bus.snoop_fanout::2                        3      0.00%    100.00% # Request fanout histogram
system.l2bus.snoop_fanout::overflows                0      0.00%    100.00% # Request fanout histogram
system.l2bus.snoop_fanout::min_value                0                       # Request fanout histogram
system.l2bus.snoop_fanout::max_value                2                       # Request fanout histogram
system.l2bus.snoop_fanout::total               227699                       # Request fanout histogram
system.l2bus.respLayer1.occupancy           113147198                       # Layer occupancy (ticks)
system.l2bus.respLayer1.utilization               1.9                       # Layer utilization (%)
system.l2bus.reqLayer0.occupancy            127362335                       # Layer occupancy (ticks)
system.l2bus.reqLayer0.utilization                2.2                       # Layer utilization (%)
system.l2bus.respLayer0.occupancy            15383598                       # Layer occupancy (ticks)
system.l2bus.respLayer0.utilization               0.3                       # Layer utilization (%)
system.clk_domain.clock                           400                       # Clock period in ticks
system.clk_domain.voltage_domain.voltage            1                       # Voltage in Volts
system.cpu.pwrStateResidencyTicks::ON      5843225200                       # Cumulative time (in ticks) in various power states
system.cpu.icache.pwrStateResidencyTicks::UNDEFINED   5843225200                       # Cumulative time (in ticks) in various power states
system.cpu.icache.demand_hits::.cpu.inst      1500488                       # number of demand (read+write) hits
system.cpu.icache.demand_hits::total          1500488                       # number of demand (read+write) hits
system.cpu.icache.overall_hits::.cpu.inst      1500488                       # number of overall hits
system.cpu.icache.overall_hits::total         1500488                       # number of overall hits
system.cpu.icache.demand_misses::.cpu.inst        14025                       # number of demand (read+write) misses
system.cpu.icache.demand_misses::total          14025                       # number of demand (read+write) misses
system.cpu.icache.overall_misses::.cpu.inst        14025                       # number of overall misses
system.cpu.icache.overall_misses::total         14025                       # number of overall misses
system.cpu.icache.demand_miss_latency::.cpu.inst    327679199                       # number of demand (read+write) miss cycles
system.cpu.icache.demand_miss_latency::total    327679199                       # number of demand (read+write) miss cycles
system.cpu.icache.overall_miss_latency::.cpu.inst    327679199                       # number of overall miss cycles
system.cpu.icache.overall_miss_latency::total    327679199                       # number of overall miss cycles
system.cpu.icache.demand_accesses::.cpu.inst      1514513                       # number of demand (read+write) accesses
system.cpu.icache.demand_accesses::total      1514513                       # number of demand (read+write) accesses
system.cpu.icache.overall_accesses::.cpu.inst      1514513                       # number of overall (read+write) accesses
system.cpu.icache.overall_accesses::total      1514513                       # number of overall (read+write) accesses
system.cpu.icache.demand_miss_rate::.cpu.inst     0.009260                       # miss rate for demand accesses
system.cpu.icache.demand_miss_rate::total     0.009260                       # miss rate for demand accesses
system.cpu.icache.overall_miss_rate::.cpu.inst     0.009260                       # miss rate for overall accesses
system.cpu.icache.overall_miss_rate::total     0.009260                       # miss rate for overall accesses
system.cpu.icache.demand_avg_miss_latency::.cpu.inst 23363.935758                       # average overall miss latency
system.cpu.icache.demand_avg_miss_latency::total 23363.935758                       # average overall miss latency
system.cpu.icache.overall_avg_miss_latency::.cpu.inst 23363.935758                       # average overall miss latency
system.cpu.icache.overall_avg_miss_latency::total 23363.935758                       # average overall miss latency
system.cpu.icache.blocked_cycles::no_mshrs          428                       # number of cycles access was blocked
system.cpu.icache.blocked_cycles::no_targets            0                       # number of cycles access was blocked
system.cpu.icache.blocked::no_mshrs                 8                       # number of cycles access was blocked
system.cpu.icache.blocked::no_targets               0                       # number of cycles access was blocked
system.cpu.icache.avg_blocked_cycles::no_mshrs    53.500000                       # average number of cycles each access was blocked
system.cpu.icache.avg_blocked_cycles::no_targets          nan                       # average number of cycles each access was blocked
system.cpu.icache.demand_mshr_hits::.cpu.inst         1206                       # number of demand (read+write) MSHR hits
system.cpu.icache.demand_mshr_hits::total         1206                       # number of demand (read+write) MSHR hits
system.cpu.icache.overall_mshr_hits::.cpu.inst         1206                       # number of overall MSHR hits
system.cpu.icache.overall_mshr_hits::total         1206                       # number of overall MSHR hits
system.cpu.icache.demand_mshr_misses::.cpu.inst        12819                       # number of demand (read+write) MSHR misses
system.cpu.icache.demand_mshr_misses::total        12819                       # number of demand (read+write) MSHR misses
system.cpu.icache.overall_mshr_misses::.cpu.inst        12819                       # number of overall MSHR misses
system.cpu.icache.overall_mshr_misses::total        12819                       # number of overall MSHR misses
system.cpu.icache.demand_mshr_miss_latency::.cpu.inst    276056399                       # number of demand (read+write) MSHR miss cycles
system.cpu.icache.demand_mshr_miss_latency::total    276056399                       # number of demand (read+write) MSHR miss cycles
system.cpu.icache.overall_mshr_miss_latency::.cpu.inst    276056399                       # number of overall MSHR miss cycles
system.cpu.icache.overall_mshr_miss_latency::total    276056399                       # number of overall MSHR miss cycles
system.cpu.icache.demand_mshr_miss_rate::.cpu.inst     0.008464                       # mshr miss rate for demand accesses
system.cpu.icache.demand_mshr_miss_rate::total     0.008464                       # mshr miss rate for demand accesses
system.cpu.icache.overall_mshr_miss_rate::.cpu.inst     0.008464                       # mshr miss rate for overall accesses
system.cpu.icache.overall_mshr_miss_rate::total     0.008464                       # mshr miss rate for overall accesses
system.cpu.icache.demand_avg_mshr_miss_latency::.cpu.inst 21534.940245                       # average overall mshr miss latency
system.cpu.icache.demand_avg_mshr_miss_latency::total 21534.940245                       # average overall mshr miss latency
system.cpu.icache.overall_avg_mshr_miss_latency::.cpu.inst 21534.940245                       # average overall mshr miss latency
system.cpu.icache.overall_avg_mshr_miss_latency::total 21534.940245                       # average overall mshr miss latency
system.cpu.icache.replacements                  12561                       # number of replacements
system.cpu.icache.ReadReq_hits::.cpu.inst      1500488                       # number of ReadReq hits
system.cpu.icache.ReadReq_hits::total         1500488                       # number of ReadReq hits
system.cpu.icache.ReadReq_misses::.cpu.inst        14025                       # number of ReadReq misses
system.cpu.icache.ReadReq_misses::total         14025                       # number of ReadReq misses
system.cpu.icache.ReadReq_miss_latency::.cpu.inst    327679199                       # number of ReadReq miss cycles
system.cpu.icache.ReadReq_miss_latency::total    327679199                       # number of ReadReq miss cycles
system.cpu.icache.ReadReq_accesses::.cpu.inst      1514513                       # number of ReadReq accesses(hits+misses)
system.cpu.icache.ReadReq_accesses::total      1514513                       # number of ReadReq accesses(hits+misses)
system.cpu.icache.ReadReq_miss_rate::.cpu.inst     0.009260                       # miss rate for ReadReq accesses
system.cpu.icache.ReadReq_miss_rate::total     0.009260                       # miss rate for ReadReq accesses
system.cpu.icache.ReadReq_avg_miss_latency::.cpu.inst 23363.935758                       # average ReadReq miss latency
system.cpu.icache.ReadReq_avg_miss_latency::total 23363.935758                       # average ReadReq miss latency
system.cpu.icache.ReadReq_mshr_hits::.cpu.inst         1206                       # number of ReadReq MSHR hits
system.cpu.icache.ReadReq_mshr_hits::total         1206                       # number of ReadReq MSHR hits
system.cpu.icache.ReadReq_mshr_misses::.cpu.inst        12819                       # number of ReadReq MSHR misses
system.cpu.icache.ReadReq_mshr_misses::total        12819                       # number of ReadReq MSHR misses
system.cpu.icache.ReadReq_mshr_miss_latency::.cpu.inst    276056399                       # number of ReadReq MSHR miss cycles
system.cpu.icache.ReadReq_mshr_miss_latency::total    276056399                       # number of ReadReq MSHR miss cycles
system.cpu.icache.ReadReq_mshr_miss_rate::.cpu.inst     0.008464                       # mshr miss rate for ReadReq accesses
system.cpu.icache.ReadReq_mshr_miss_rate::total     0.008464                       # mshr miss rate for ReadReq accesses
system.cpu.icache.ReadReq_avg_mshr_miss_latency::.cpu.inst 21534.940245                       # average ReadReq mshr miss latency
system.cpu.icache.ReadReq_avg_mshr_miss_latency::total 21534.940245                       # average ReadReq mshr miss latency
system.cpu.icache.prefetcher.pwrStateResidencyTicks::UNDEFINED   5843225200                       # Cumulative time (in ticks) in various power states
system.cpu.icache.tags.pwrStateResidencyTicks::UNDEFINED   5843225200                       # Cumulative time (in ticks) in various power states
system.cpu.icache.tags.tagsinuse           254.811855                       # Cycle average of tags in use
system.cpu.icache.tags.total_refs             1435461                       # Total number of references to valid blocks.
system.cpu.icache.tags.sampled_refs             12563                       # Sample count of references to valid blocks.
system.cpu.icache.tags.avg_refs            114.261005                       # Average number of references to valid blocks.
system.cpu.icache.tags.warmup_cycle             66400                       # Cycle when the warmup percentage was hit.
system.cpu.icache.tags.occ_blocks::.cpu.inst   254.811855                       # Average occupied blocks per requestor
system.cpu.icache.tags.occ_percent::.cpu.inst     0.995359                       # Average percentage of cache occupancy
system.cpu.icache.tags.occ_percent::total     0.995359                       # Average percentage of cache occupancy
system.cpu.icache.tags.occ_task_id_blocks::1024          256                       # Occupied blocks per task id
system.cpu.icache.tags.age_task_id_blocks_1024::0          105                       # Occupied blocks per task id
system.cpu.icache.tags.age_task_id_blocks_1024::1           13                       # Occupied blocks per task id
system.cpu.icache.tags.age_task_id_blocks_1024::2           95                       # Occupied blocks per task id
system.cpu.icache.tags.age_task_id_blocks_1024::3           43                       # Occupied blocks per task id
system.cpu.icache.tags.occ_task_id_percent::1024            1                       # Percentage of cache occupancy per task id
system.cpu.icache.tags.tag_accesses           3041845                       # Number of tag accesses
system.cpu.icache.tags.data_accesses          3041845                       # Number of data accesses
system.cpu.dtb.walker.pwrStateResidencyTicks::UNDEFINED   5843225200                       # Cumulative time (in ticks) in various power states
system.cpu.interrupts.clk_domain.clock           6400                       # Clock period in ticks
system.cpu.itb.walker.pwrStateResidencyTicks::UNDEFINED   5843225200                       # Cumulative time (in ticks) in various power states
system.cpu.dcache.pwrStateResidencyTicks::UNDEFINED   5843225200                       # Cumulative time (in ticks) in various power states
system.cpu.dcache.demand_hits::.cpu.data      4884815                       # number of demand (read+write) hits
system.cpu.dcache.demand_hits::total          4884815                       # number of demand (read+write) hits
system.cpu.dcache.overall_hits::.cpu.data      5656022                       # number of overall hits
system.cpu.dcache.overall_hits::total         5656022                       # number of overall hits
system.cpu.dcache.demand_misses::.cpu.data        56938                       # number of demand (read+write) misses
system.cpu.dcache.demand_misses::total          56938                       # number of demand (read+write) misses
system.cpu.dcache.overall_misses::.cpu.data       194415                       # number of overall misses
system.cpu.dcache.overall_misses::total        194415                       # number of overall misses
system.cpu.dcache.demand_miss_latency::.cpu.data   3222521999                       # number of demand (read+write) miss cycles
system.cpu.dcache.demand_miss_latency::total   3222521999                       # number of demand (read+write) miss cycles
system.cpu.dcache.overall_miss_latency::.cpu.data   3222521999                       # number of overall miss cycles
system.cpu.dcache.overall_miss_latency::total   3222521999                       # number of overall miss cycles
system.cpu.dcache.demand_accesses::.cpu.data      4941753                       # number of demand (read+write) accesses
system.cpu.dcache.demand_accesses::total      4941753                       # number of demand (read+write) accesses
system.cpu.dcache.overall_accesses::.cpu.data      5850437                       # number of overall (read+write) accesses
system.cpu.dcache.overall_accesses::total      5850437                       # number of overall (read+write) accesses
system.cpu.dcache.demand_miss_rate::.cpu.data     0.011522                       # miss rate for demand accesses
system.cpu.dcache.demand_miss_rate::total     0.011522                       # miss rate for demand accesses
system.cpu.dcache.overall_miss_rate::.cpu.data     0.033231                       # miss rate for overall accesses
system.cpu.dcache.overall_miss_rate::total     0.033231                       # miss rate for overall accesses
system.cpu.dcache.demand_avg_miss_latency::.cpu.data 56597.035354                       # average overall miss latency
system.cpu.dcache.demand_avg_miss_latency::total 56597.035354                       # average overall miss latency
system.cpu.dcache.overall_avg_miss_latency::.cpu.data 16575.480282                       # average overall miss latency
system.cpu.dcache.overall_avg_miss_latency::total 16575.480282                       # average overall miss latency
system.cpu.dcache.blocked_cycles::no_mshrs        30718                       # number of cycles access was blocked
system.cpu.dcache.blocked_cycles::no_targets          693                       # number of cycles access was blocked
system.cpu.dcache.blocked::no_mshrs               795                       # number of cycles access was blocked
system.cpu.dcache.blocked::no_targets               3                       # number of cycles access was blocked
system.cpu.dcache.avg_blocked_cycles::no_mshrs    38.638994                       # average number of cycles each access was blocked
system.cpu.dcache.avg_blocked_cycles::no_targets          231                       # average number of cycles each access was blocked
system.cpu.dcache.unused_prefetches              2024                       # number of HardPF blocks evicted w/o reference
system.cpu.dcache.writebacks::.writebacks        41286                       # number of writebacks
system.cpu.dcache.writebacks::total             41286                       # number of writebacks
system.cpu.dcache.demand_mshr_hits::.cpu.data        24174                       # number of demand (read+write) MSHR hits
system.cpu.dcache.demand_mshr_hits::total        24174                       # number of demand (read+write) MSHR hits
system.cpu.dcache.overall_mshr_hits::.cpu.data        24174                       # number of overall MSHR hits
system.cpu.dcache.overall_mshr_hits::total        24174                       # number of overall MSHR hits
system.cpu.dcache.demand_mshr_misses::.cpu.data        32764                       # number of demand (read+write) MSHR misses
system.cpu.dcache.demand_mshr_misses::total        32764                       # number of demand (read+write) MSHR misses
system.cpu.dcache.overall_mshr_misses::.cpu.data        70342                       # number of overall MSHR misses
system.cpu.dcache.overall_mshr_misses::.cpu.dcache.prefetcher        23948                       # number of overall MSHR misses
system.cpu.dcache.overall_mshr_misses::total        94290                       # number of overall MSHR misses
system.cpu.dcache.demand_mshr_miss_latency::.cpu.data   1989310399                       # number of demand (read+write) MSHR miss cycles
system.cpu.dcache.demand_mshr_miss_latency::total   1989310399                       # number of demand (read+write) MSHR miss cycles
system.cpu.dcache.overall_mshr_miss_latency::.cpu.data   4407396799                       # number of overall MSHR miss cycles
system.cpu.dcache.overall_mshr_miss_latency::.cpu.dcache.prefetcher    498894977                       # number of overall MSHR miss cycles
system.cpu.dcache.overall_mshr_miss_latency::total   4906291776                       # number of overall MSHR miss cycles
system.cpu.dcache.demand_mshr_miss_rate::.cpu.data     0.006630                       # mshr miss rate for demand accesses
system.cpu.dcache.demand_mshr_miss_rate::total     0.006630                       # mshr miss rate for demand accesses
system.cpu.dcache.overall_mshr_miss_rate::.cpu.data     0.012023                       # mshr miss rate for overall accesses
system.cpu.dcache.overall_mshr_miss_rate::.cpu.dcache.prefetcher          inf                       # mshr miss rate for overall accesses
system.cpu.dcache.overall_mshr_miss_rate::total     0.016117                       # mshr miss rate for overall accesses
system.cpu.dcache.demand_avg_mshr_miss_latency::.cpu.data 60716.347180                       # average overall mshr miss latency
system.cpu.dcache.demand_avg_mshr_miss_latency::total 60716.347180                       # average overall mshr miss latency
system.cpu.dcache.overall_avg_mshr_miss_latency::.cpu.data 62656.688735                       # average overall mshr miss latency
system.cpu.dcache.overall_avg_mshr_miss_latency::.cpu.dcache.prefetcher 20832.427635                       # average overall mshr miss latency
system.cpu.dcache.overall_avg_mshr_miss_latency::total 52034.062743                       # average overall mshr miss latency
system.cpu.dcache.replacements                  93264                       # number of replacements
system.cpu.dcache.ReadReq_hits::.cpu.data      4095199                       # number of ReadReq hits
system.cpu.dcache.ReadReq_hits::total         4095199                       # number of ReadReq hits
system.cpu.dcache.ReadReq_misses::.cpu.data        35462                       # number of ReadReq misses
system.cpu.dcache.ReadReq_misses::total         35462                       # number of ReadReq misses
system.cpu.dcache.ReadReq_miss_latency::.cpu.data   1730283600                       # number of ReadReq miss cycles
system.cpu.dcache.ReadReq_miss_latency::total   1730283600                       # number of ReadReq miss cycles
system.cpu.dcache.ReadReq_accesses::.cpu.data      4130661                       # number of ReadReq accesses(hits+misses)
system.cpu.dcache.ReadReq_accesses::total      4130661                       # number of ReadReq accesses(hits+misses)
system.cpu.dcache.ReadReq_miss_rate::.cpu.data     0.008585                       # miss rate for ReadReq accesses
system.cpu.dcache.ReadReq_miss_rate::total     0.008585                       # miss rate for ReadReq accesses
system.cpu.dcache.ReadReq_avg_miss_latency::.cpu.data 48792.611810                       # average ReadReq miss latency
system.cpu.dcache.ReadReq_avg_miss_latency::total 48792.611810                       # average ReadReq miss latency
system.cpu.dcache.ReadReq_mshr_hits::.cpu.data        24137                       # number of ReadReq MSHR hits
system.cpu.dcache.ReadReq_mshr_hits::total        24137                       # number of ReadReq MSHR hits
system.cpu.dcache.ReadReq_mshr_misses::.cpu.data        11325                       # number of ReadReq MSHR misses
system.cpu.dcache.ReadReq_mshr_misses::total        11325                       # number of ReadReq MSHR misses
system.cpu.dcache.ReadReq_mshr_miss_latency::.cpu.data    515670800                       # number of ReadReq MSHR miss cycles
system.cpu.dcache.ReadReq_mshr_miss_latency::total    515670800                       # number of ReadReq MSHR miss cycles
system.cpu.dcache.ReadReq_mshr_miss_rate::.cpu.data     0.002742                       # mshr miss rate for ReadReq accesses
system.cpu.dcache.ReadReq_mshr_miss_rate::total     0.002742                       # mshr miss rate for ReadReq accesses
system.cpu.dcache.ReadReq_avg_mshr_miss_latency::.cpu.data 45533.845475                       # average ReadReq mshr miss latency
system.cpu.dcache.ReadReq_avg_mshr_miss_latency::total 45533.845475                       # average ReadReq mshr miss latency
system.cpu.dcache.WriteReq_hits::.cpu.data       789616                       # number of WriteReq hits
system.cpu.dcache.WriteReq_hits::total         789616                       # number of WriteReq hits
system.cpu.dcache.WriteReq_misses::.cpu.data        21476                       # number of WriteReq misses
system.cpu.dcache.WriteReq_misses::total        21476                       # number of WriteReq misses
system.cpu.dcache.WriteReq_miss_latency::.cpu.data   1492238399                       # number of WriteReq miss cycles
system.cpu.dcache.WriteReq_miss_latency::total   1492238399                       # number of WriteReq miss cycles
system.cpu.dcache.WriteReq_accesses::.cpu.data       811092                       # number of WriteReq accesses(hits+misses)
system.cpu.dcache.WriteReq_accesses::total       811092                       # number of WriteReq accesses(hits+misses)
system.cpu.dcache.WriteReq_miss_rate::.cpu.data     0.026478                       # miss rate for WriteReq accesses
system.cpu.dcache.WriteReq_miss_rate::total     0.026478                       # miss rate for WriteReq accesses
system.cpu.dcache.WriteReq_avg_miss_latency::.cpu.data 69484.000698                       # average WriteReq miss latency
system.cpu.dcache.WriteReq_avg_miss_latency::total 69484.000698                       # average WriteReq miss latency
system.cpu.dcache.WriteReq_mshr_hits::.cpu.data           37                       # number of WriteReq MSHR hits
[...]
system.l2cache.overall_mshr_miss_latency::total     90192944                       # number of overall MSHR miss cycles
system.l2cache.demand_mshr_miss_rate::.cpu.inst     0.811069                       # mshr miss rate for demand accesses
system.l2cache.demand_mshr_miss_rate::.cpu.data     0.854023                       # mshr miss rate for demand accesses
system.l2cache.demand_mshr_miss_rate::.cpu.dcache.prefetcher     0.381757                       # mshr miss rate for demand accesses
system.l2cache.demand_mshr_miss_rate::total     0.757988                       # mshr miss rate for demand accesses
system.l2cache.overall_mshr_miss_rate::.cpu.inst     0.811069                       # mshr miss rate for overall accesses
system.l2cache.overall_mshr_miss_rate::.cpu.data     0.854023                       # mshr miss rate for overall accesses
system.l2cache.overall_mshr_miss_rate::.cpu.dcache.prefetcher     0.381757                       # mshr miss rate for overall accesses
system.l2cache.overall_mshr_miss_rate::.l2cache.prefetcher          inf                       # mshr miss rate for overall accesses
system.l2cache.overall_mshr_miss_rate::total     0.868639                       # mshr miss rate for overall accesses
system.l2cache.demand_avg_mshr_miss_latency::.cpu.inst 61141.647059                       # average overall mshr miss latency
system.l2cache.demand_avg_mshr_miss_latency::.cpu.data 61311.440108                       # average overall mshr miss latency
system.l2cache.demand_avg_mshr_miss_latency::.cpu.dcache.prefetcher 58746.079646                       # average overall mshr miss latency
system.l2cache.demand_avg_mshr_miss_latency::total 61028.811085                       # average overall mshr miss latency
system.l2cache.overall_avg_mshr_miss_latency::.cpu.inst 61141.647059                       # average overall mshr miss latency
system.l2cache.overall_avg_mshr_miss_latency::.cpu.data 61311.440108                       # average overall mshr miss latency
system.l2cache.overall_avg_mshr_miss_latency::.cpu.dcache.prefetcher 58746.079646                       # average overall mshr miss latency
system.l2cache.overall_avg_mshr_miss_latency::.l2cache.prefetcher 64251.534759                       # average overall mshr miss latency
system.l2cache.overall_avg_mshr_miss_latency::total 61439.335150                       # average overall mshr miss latency
system.l2cache.replacements                      1647                       # number of replacements
system.l2cache.WritebackDirty_hits::.writebacks          393                       # number of WritebackDirty hits
system.l2cache.WritebackDirty_hits::total          393                       # number of WritebackDirty hits
system.l2cache.WritebackDirty_accesses::.writebacks          393                       # number of WritebackDirty accesses(hits+misses)
system.l2cache.WritebackDirty_accesses::total          393                       # number of WritebackDirty accesses(hits+misses)
system.l2cache.CleanEvict_mshr_misses::.writebacks           92                       # number of CleanEvict MSHR misses
system.l2cache.CleanEvict_mshr_misses::total           92                       # number of CleanEvict MSHR misses
system.l2cache.CleanEvict_mshr_miss_rate::.writebacks          inf                       # mshr miss rate for CleanEvict accesses
system.l2cache.CleanEvict_mshr_miss_rate::total          inf                       # mshr miss rate for CleanEvict accesses
system.l2cache.HardPFReq_mshr_misses::.l2cache.prefetcher          187                       # number of HardPFReq MSHR misses
system.l2cache.HardPFReq_mshr_misses::total          187                       # number of HardPFReq MSHR misses
system.l2cache.HardPFReq_mshr_miss_latency::.l2cache.prefetcher     12015037                       # number of HardPFReq MSHR miss cycles
system.l2cache.HardPFReq_mshr_miss_latency::total     12015037                       # number of HardPFReq MSHR miss cycles
system.l2cache.HardPFReq_mshr_miss_rate::.l2cache.prefetcher          inf                       # mshr miss rate for HardPFReq accesses
system.l2cache.HardPFReq_mshr_miss_rate::total          inf                       # mshr miss rate for HardPFReq accesses
system.l2cache.HardPFReq_avg_mshr_miss_latency::.l2cache.prefetcher 64251.534759                       # average HardPFReq mshr miss latency
system.l2cache.HardPFReq_avg_mshr_miss_latency::total 64251.534759                       # average HardPFReq mshr miss latency
system.l2cache.ReadExReq_hits::.cpu.data           14                       # number of ReadExReq hits
system.l2cache.ReadExReq_hits::total               14                       # number of ReadExReq hits
system.l2cache.ReadExReq_misses::.cpu.data           28                       # number of ReadExReq misses
system.l2cache.ReadExReq_misses::total             28                       # number of ReadExReq misses
system.l2cache.ReadExReq_miss_latency::.cpu.data      1918800                       # number of ReadExReq miss cycles
system.l2cache.ReadExReq_miss_latency::total      1918800                       # number of ReadExReq miss cycles
system.l2cache.ReadExReq_accesses::.cpu.data           42                       # number of ReadExReq accesses(hits+misses)
system.l2cache.ReadExReq_accesses::total           42                       # number of ReadExReq accesses(hits+misses)
system.l2cache.ReadExReq_miss_rate::.cpu.data     0.666667                       # miss rate for ReadExReq accesses
system.l2cache.ReadExReq_miss_rate::total     0.666667                       # miss rate for ReadExReq accesses
system.l2cache.ReadExReq_avg_miss_latency::.cpu.data 68528.571429                       # average ReadExReq miss latency
system.l2cache.ReadExReq_avg_miss_latency::total 68528.571429                       # average ReadExReq miss latency
system.l2cache.ReadExReq_mshr_misses::.cpu.data           28                       # number of ReadExReq MSHR misses
system.l2cache.ReadExReq_mshr_misses::total           28                       # number of ReadExReq MSHR misses
system.l2cache.ReadExReq_mshr_miss_latency::.cpu.data      1694800                       # number of ReadExReq MSHR miss cycles
system.l2cache.ReadExReq_mshr_miss_latency::total      1694800                       # number of ReadExReq MSHR miss cycles
system.l2cache.ReadExReq_mshr_miss_rate::.cpu.data     0.666667                       # mshr miss rate for ReadExReq accesses
system.l2cache.ReadExReq_mshr_miss_rate::total     0.666667                       # mshr miss rate for ReadExReq accesses
system.l2cache.ReadExReq_avg_mshr_miss_latency::.cpu.data 60528.571429                       # average ReadExReq mshr miss latency
system.l2cache.ReadExReq_avg_mshr_miss_latency::total 60528.571429                       # average ReadExReq mshr miss latency
system.l2cache.ReadSharedReq_hits::.cpu.inst           99                       # number of ReadSharedReq hits
system.l2cache.ReadSharedReq_hits::.cpu.data          113                       # number of ReadSharedReq hits
system.l2cache.ReadSharedReq_hits::.cpu.dcache.prefetcher          137                       # number of ReadSharedReq hits
system.l2cache.ReadSharedReq_hits::total          349                       # number of ReadSharedReq hits
system.l2cache.ReadSharedReq_misses::.cpu.inst          425                       # number of ReadSharedReq misses
system.l2cache.ReadSharedReq_misses::.cpu.data          715                       # number of ReadSharedReq misses
system.l2cache.ReadSharedReq_misses::.cpu.dcache.prefetcher          159                       # number of ReadSharedReq misses
system.l2cache.ReadSharedReq_misses::total         1299                       # number of ReadSharedReq misses
system.l2cache.ReadSharedReq_miss_latency::.cpu.inst     29377200                       # number of ReadSharedReq miss cycles
system.l2cache.ReadSharedReq_miss_latency::.cpu.data     49579600                       # number of ReadSharedReq miss cycles
system.l2cache.ReadSharedReq_miss_latency::.cpu.dcache.prefetcher      9939489                       # number of ReadSharedReq miss cycles
system.l2cache.ReadSharedReq_miss_latency::total     88896289                       # number of ReadSharedReq miss cycles
system.l2cache.ReadSharedReq_accesses::.cpu.inst          524                       # number of ReadSharedReq accesses(hits+misses)
system.l2cache.ReadSharedReq_accesses::.cpu.data          828                       # number of ReadSharedReq accesses(hits+misses)
system.l2cache.ReadSharedReq_accesses::.cpu.dcache.prefetcher          296                       # number of ReadSharedReq accesses(hits+misses)
system.l2cache.ReadSharedReq_accesses::total         1648                       # number of ReadSharedReq accesses(hits+misses)
system.l2cache.ReadSharedReq_miss_rate::.cpu.inst     0.811069                       # miss rate for ReadSharedReq accesses
system.l2cache.ReadSharedReq_miss_rate::.cpu.data     0.863527                       # miss rate for ReadSharedReq accesses
system.l2cache.ReadSharedReq_miss_rate::.cpu.dcache.prefetcher     0.537162                       # miss rate for ReadSharedReq accesses
system.l2cache.ReadSharedReq_miss_rate::total     0.788228                       # miss rate for ReadSharedReq accesses
system.l2cache.ReadSharedReq_avg_miss_latency::.cpu.inst 69122.823529                       # average ReadSharedReq miss latency
system.l2cache.ReadSharedReq_avg_miss_latency::.cpu.data 69342.097902                       # average ReadSharedReq miss latency
system.l2cache.ReadSharedReq_avg_miss_latency::.cpu.dcache.prefetcher 62512.509434                       # average ReadSharedReq miss latency
system.l2cache.ReadSharedReq_avg_miss_latency::total 68434.402617                       # average ReadSharedReq miss latency
system.l2cache.ReadSharedReq_mshr_hits::.cpu.dcache.prefetcher           46                       # number of ReadSharedReq MSHR hits
system.l2cache.ReadSharedReq_mshr_hits::total           46                       # number of ReadSharedReq MSHR hits
system.l2cache.ReadSharedReq_mshr_misses::.cpu.inst          425                       # number of ReadSharedReq MSHR misses
system.l2cache.ReadSharedReq_mshr_misses::.cpu.data          715                       # number of ReadSharedReq MSHR misses
system.l2cache.ReadSharedReq_mshr_misses::.cpu.dcache.prefetcher          113                       # number of ReadSharedReq MSHR misses
system.l2cache.ReadSharedReq_mshr_misses::total         1253                       # number of ReadSharedReq MSHR misses
system.l2cache.ReadSharedReq_mshr_miss_latency::.cpu.inst     25985200                       # number of ReadSharedReq MSHR miss cycles
system.l2cache.ReadSharedReq_mshr_miss_latency::.cpu.data     43859600                       # number of ReadSharedReq MSHR miss cycles
system.l2cache.ReadSharedReq_mshr_miss_latency::.cpu.dcache.prefetcher      6638307                       # number of ReadSharedReq MSHR miss cycles
system.l2cache.ReadSharedReq_mshr_miss_latency::total     76483107                       # number of ReadSharedReq MSHR miss cycles
system.l2cache.ReadSharedReq_mshr_miss_rate::.cpu.inst     0.811069                       # mshr miss rate for ReadSharedReq accesses
system.l2cache.ReadSharedReq_mshr_miss_rate::.cpu.data     0.863527                       # mshr miss rate for ReadSharedReq accesses
system.l2cache.ReadSharedReq_mshr_miss_rate::.cpu.dcache.prefetcher     0.381757                       # mshr miss rate for ReadSharedReq accesses
system.l2cache.ReadSharedReq_mshr_miss_rate::total     0.760316                       # mshr miss rate for ReadSharedReq accesses
system.l2cache.ReadSharedReq_avg_mshr_miss_latency::.cpu.inst 61141.647059                       # average ReadSharedReq mshr miss latency
system.l2cache.ReadSharedReq_avg_mshr_miss_latency::.cpu.data 61342.097902                       # average ReadSharedReq mshr miss latency
system.l2cache.ReadSharedReq_avg_mshr_miss_latency::.cpu.dcache.prefetcher 58746.079646                       # average ReadSharedReq mshr miss latency
system.l2cache.ReadSharedReq_avg_mshr_miss_latency::total 61039.989625                       # average ReadSharedReq mshr miss latency
system.l2cache.prefetcher.pwrStateResidencyTicks::UNDEFINED     93397600                       # Cumulative time (in ticks) in various power states
system.l2cache.tags.pwrStateResidencyTicks::UNDEFINED     93397600                       # Cumulative time (in ticks) in various power states
system.l2cache.tags.tagsinuse                    4096                       # Cycle average of tags in use
system.l2cache.tags.total_refs                  11141                       # Total number of references to valid blocks.
system.l2cache.tags.sampled_refs                 5743                       # Sample count of references to valid blocks.
system.l2cache.tags.avg_refs                 1.939927                       # Average number of references to valid blocks.
system.l2cache.tags.warmup_cycle                    0                       # Cycle when the warmup percentage was hit.
system.l2cache.tags.occ_blocks::.writebacks   131.826022                       # Average occupied blocks per requestor
system.l2cache.tags.occ_blocks::.cpu.inst   441.617872                       # Average occupied blocks per requestor
system.l2cache.tags.occ_blocks::.cpu.data  1135.632459                       # Average occupied blocks per requestor
system.l2cache.tags.occ_blocks::.cpu.dcache.prefetcher  2264.509768                       # Average occupied blocks per requestor
system.l2cache.tags.occ_blocks::.l2cache.prefetcher   122.413879                       # Average occupied blocks per requestor
system.l2cache.tags.occ_percent::.writebacks     0.032184                       # Average percentage of cache occupancy
system.l2cache.tags.occ_percent::.cpu.inst     0.107817                       # Average percentage of cache occupancy
system.l2cache.tags.occ_percent::.cpu.data     0.277254                       # Average percentage of cache occupancy
system.l2cache.tags.occ_percent::.cpu.dcache.prefetcher     0.552859                       # Average percentage of cache occupancy
system.l2cache.tags.occ_percent::.l2cache.prefetcher     0.029886                       # Average percentage of cache occupancy
system.l2cache.tags.occ_percent::total              1                       # Average percentage of cache occupancy
system.l2cache.tags.occ_task_id_blocks::1022         2077                       # Occupied blocks per task id
system.l2cache.tags.occ_task_id_blocks::1024         2019                       # Occupied blocks per task id
system.l2cache.tags.age_task_id_blocks_1022::0           27                       # Occupied blocks per task id
system.l2cache.tags.age_task_id_blocks_1022::1          394                       # Occupied blocks per task id
system.l2cache.tags.age_task_id_blocks_1022::2         1656                       # Occupied blocks per task id
system.l2cache.tags.age_task_id_blocks_1024::0          202                       # Occupied blocks per task id
system.l2cache.tags.age_task_id_blocks_1024::1         1075                       # Occupied blocks per task id
system.l2cache.tags.age_task_id_blocks_1024::2          742                       # Occupied blocks per task id
system.l2cache.tags.occ_task_id_percent::1022     0.507080                       # Percentage of cache occupancy per task id
system.l2cache.tags.occ_task_id_percent::1024     0.492920                       # Percentage of cache occupancy per task id
system.l2cache.tags.tag_accesses                28679                       # Number of tag accesses
system.l2cache.tags.data_accesses               28679                       # Number of data accesses
system.mem_ctrl.pwrStateResidencyTicks::UNDEFINED     93397600                       # Cumulative time (in ticks) in various power states
system.mem_ctrl.bytes_read::.cpu.inst           27136                       # Number of bytes read from this memory
system.mem_ctrl.bytes_read::.cpu.data           47552                       # Number of bytes read from this memory
system.mem_ctrl.bytes_read::.cpu.dcache.prefetcher         7232                       # Number of bytes read from this memory
system.mem_ctrl.bytes_read::.l2cache.prefetcher        11968                       # Number of bytes read from this memory
system.mem_ctrl.bytes_read::total               93888                       # Number of bytes read from this memory
system.mem_ctrl.bytes_inst_read::.cpu.inst        27136                       # Number of instructions bytes read from this memory
system.mem_ctrl.bytes_inst_read::total          27136                       # Number of instructions bytes read from this memory
system.mem_ctrl.bytes_written::.writebacks          576                       # Number of bytes written to this memory
system.mem_ctrl.bytes_written::total              576                       # Number of bytes written to this memory
system.mem_ctrl.num_reads::.cpu.inst              424                       # Number of read requests responded to by this memory
system.mem_ctrl.num_reads::.cpu.data              743                       # Number of read requests responded to by this memory
system.mem_ctrl.num_reads::.cpu.dcache.prefetcher          113                       # Number of read requests responded to by this memory
system.mem_ctrl.num_reads::.l2cache.prefetcher          187                       # Number of read requests responded to by this memory
system.mem_ctrl.num_reads::total                 1467                       # Number of read requests responded to by this memory
system.mem_ctrl.num_writes::.writebacks             9                       # Number of write requests responded to by this memory
system.mem_ctrl.num_writes::total                   9                       # Number of write requests responded to by this memory
system.mem_ctrl.bw_read::.cpu.inst          290542798                       # Total read bandwidth from this memory (bytes/s)
system.mem_ctrl.bw_read::.cpu.data          509135138                       # Total read bandwidth from this memory (bytes/s)
system.mem_ctrl.bw_read::.cpu.dcache.prefetcher     77432397                       # Total read bandwidth from this memory (bytes/s)
system.mem_ctrl.bw_read::.l2cache.prefetcher    128140338                       # Total read bandwidth from this memory (bytes/s)
system.mem_ctrl.bw_read::total             1005250670                       # Total read bandwidth from this memory (bytes/s)
system.mem_ctrl.bw_inst_read::.cpu.inst     290542798                       # Instruction read bandwidth from this memory (bytes/s)
system.mem_ctrl.bw_inst_read::total         290542798                       # Instruction read bandwidth from this memory (bytes/s)
system.mem_ctrl.bw_write::.writebacks         6167182                       # Write bandwidth from this memory (bytes/s)
system.mem_ctrl.bw_write::total               6167182                       # Write bandwidth from this memory (bytes/s)
system.mem_ctrl.bw_total::.writebacks         6167182                       # Total bandwidth to/from this memory (bytes/s)
system.mem_ctrl.bw_total::.cpu.inst         290542798                       # Total bandwidth to/from this memory (bytes/s)
system.mem_ctrl.bw_total::.cpu.data         509135138                       # Total bandwidth to/from this memory (bytes/s)
system.mem_ctrl.bw_total::.cpu.dcache.prefetcher     77432397                       # Total bandwidth to/from this memory (bytes/s)
system.mem_ctrl.bw_total::.l2cache.prefetcher    128140338                       # Total bandwidth to/from this memory (bytes/s)
system.mem_ctrl.bw_total::total            1011417852                       # Total bandwidth to/from this memory (bytes/s)

---------- End Simulation Statistics   ----------
