
---------- Begin Simulation Statistics ----------
final_tick                                 1082216400                       # Number of ticks from beginning of simulation (restored from checkpoints and never reset)
host_inst_rate                                 184459                       # Simulator instruction rate (inst/s)
host_mem_usage                                4402744                       # Number of bytes of host memory used
host_op_rate                                   320416                       # Simulator op (including micro ops) rate (op/s)
host_seconds                                    11.11                       # Real time elapsed on the host
host_tick_rate                               97413888                       # Simulator tick rate (ticks/s)
sim_freq                                 1000000000000                       # Frequency of simulated ticks
sim_insts                                     2049221                       # Number of instructions simulated
sim_ops                                       3559645                       # Number of ops (including micro ops) simulated
sim_seconds                                  0.001082                       # Number of seconds simulated
sim_ticks                                  1082216400                       # Number of ticks simulated
system.cpu.branchPred.BTBCorrect                    0                       # Number of correct BTB predictions (this stat may not work properly.
system.cpu.branchPred.BTBHitPct              0.000000                       # BTB Hit Percentage
system.cpu.branchPred.BTBHits                       0                       # Number of BTB hits
system.cpu.branchPred.BTBLookups               434834                       # Number of BTB lookups
system.cpu.branchPred.RASInCorrect                  5                       # Number of incorrect RAS predictions.
system.cpu.branchPred.condIncorrect             24222                       # Number of conditional branches incorrect
system.cpu.branchPred.condPredicted            461015                       # Number of conditional branches predicted
system.cpu.branchPred.indirectHits             237081                       # Number of indirect target hits.
system.cpu.branchPred.indirectLookups          434834                       # Number of indirect predictor lookups.
system.cpu.branchPred.indirectMisses           197753                       # Number of indirect misses.
system.cpu.branchPred.lookups                  486816                       # Number of BP lookups
system.cpu.branchPred.usedRAS                   11089                       # Number of times the RAS was used to get a target.
system.cpu.branchPredindirectMispredicted        12150                       # Number of mispredicted indirect branches.
system.cpu.cc_regfile_reads                   2351555                       # number of cc regfile reads
system.cpu.cc_regfile_writes                  1927721                       # number of cc regfile writes
system.cpu.commit.amos                              0                       # Number of atomic instructions committed
system.cpu.commit.branchMispredicts             24304                       # The number of times a branch was mispredicted
system.cpu.commit.branches                     341698                       # Number of branches committed
system.cpu.commit.bw_lim_events                590501                       # number cycles where commit BW limit reached
system.cpu.commit.commitNonSpecStalls             732                       # The number of times commit has been forced to stall to communicate backwards
system.cpu.commit.commitSquashedInsts          889202                       # The number of squashed insts skipped by commit
system.cpu.commit.committedInsts              2049221                       # Number of instructions committed
system.cpu.commit.committedOps                3559645                       # Number of ops (including micro ops) committed
system.cpu.commit.committed_per_cycle::samples      2314711                       # Number of insts commited each cycle
system.cpu.commit.committed_per_cycle::mean     1.537836                       # Number of insts commited each cycle
system.cpu.commit.committed_per_cycle::stdev     1.723302                       # Number of insts commited each cycle
system.cpu.commit.committed_per_cycle::underflows            0      0.00%      0.00% # Number of insts commited each cycle
system.cpu.commit.committed_per_cycle::0      1150453     49.70%     49.70% # Number of insts commited each cycle
system.cpu.commit.committed_per_cycle::1       177312      7.66%     57.36% # Number of insts commited each cycle
system.cpu.commit.committed_per_cycle::2       169006      7.30%     64.66% # Number of insts commited each cycle
system.cpu.commit.committed_per_cycle::3       227439      9.83%     74.49% # Number of insts commited each cycle
system.cpu.commit.committed_per_cycle::4       590501     25.51%    100.00% # Number of insts commited each cycle
system.cpu.commit.committed_per_cycle::overflows            0      0.00%    100.00% # Number of insts commited each cycle
system.cpu.commit.committed_per_cycle::min_value            0                       # Number of insts commited each cycle
system.cpu.commit.committed_per_cycle::max_value            4                       # Number of insts commited each cycle
system.cpu.commit.committed_per_cycle::total      2314711                       # Number of insts commited each cycle
system.cpu.commit.fp_insts                      72844                       # Number of committed floating point instructions.
system.cpu.commit.function_calls                 9268                       # Number of function calls committed.
system.cpu.commit.int_insts                   3505479                       # Number of committed integer instructions.
system.cpu.commit.loads                        487426                       # Number of loads committed
system.cpu.commit.membars                           1                       # Number of memory barriers committed
system.cpu.commit.op_class_0::No_OpClass        20165      0.57%      0.57% # Class of committed instruction
system.cpu.commit.op_class_0::IntAlu          2802395     78.73%     79.29% # Class of committed instruction
system.cpu.commit.op_class_0::IntMult            1531      0.04%     79.34% # Class of committed instruction
system.cpu.commit.op_class_0::IntDiv            37816      1.06%     80.40% # Class of committed instruction
system.cpu.commit.op_class_0::FloatAdd           2834      0.08%     80.48% # Class of committed instruction
system.cpu.commit.op_class_0::FloatCmp              0      0.00%     80.48% # Class of committed instruction
system.cpu.commit.op_class_0::FloatCvt           1200      0.03%     80.51% # Class of committed instruction
system.cpu.commit.op_class_0::FloatMult             0      0.00%     80.51% # Class of committed instruction
system.cpu.commit.op_class_0::FloatMultAcc            0      0.00%     80.51% # Class of committed instruction
system.cpu.commit.op_class_0::FloatDiv              0      0.00%     80.51% # Class of committed instruction
system.cpu.commit.op_class_0::FloatMisc             0      0.00%     80.51% # Class of committed instruction
system.cpu.commit.op_class_0::FloatSqrt             0      0.00%     80.51% # Class of committed instruction
system.cpu.commit.op_class_0::SimdAdd            6184      0.17%     80.69% # Class of committed instruction
system.cpu.commit.op_class_0::SimdAddAcc            0      0.00%     80.69% # Class of committed instruction
system.cpu.commit.op_class_0::SimdAlu           11116      0.31%     81.00% # Class of committed instruction
system.cpu.commit.op_class_0::SimdCmp               0      0.00%     81.00% # Class of committed instruction
system.cpu.commit.op_class_0::SimdCvt           12050      0.34%     81.34% # Class of committed instruction
system.cpu.commit.op_class_0::SimdMisc           6479      0.18%     81.52% # Class of committed instruction
system.cpu.commit.op_class_0::SimdMult              0      0.00%     81.52% # Class of committed instruction
system.cpu.commit.op_class_0::SimdMultAcc            0      0.00%     81.52% # Class of committed instruction
system.cpu.commit.op_class_0::SimdShift          1055      0.03%     81.55% # Class of committed instruction
system.cpu.commit.op_class_0::SimdShiftAcc            0      0.00%     81.55% # Class of committed instruction
system.cpu.commit.op_class_0::SimdDiv               0      0.00%     81.55% # Class of committed instruction
system.cpu.commit.op_class_0::SimdSqrt              0      0.00%     81.55% # Class of committed instruction
system.cpu.commit.op_class_0::SimdFloatAdd            0      0.00%     81.55% # Class of committed instruction
system.cpu.commit.op_class_0::SimdFloatAlu            0      0.00%     81.55% # Class of committed instruction
system.cpu.commit.op_class_0::SimdFloatCmp            0      0.00%     81.55% # Class of committed instruction
system.cpu.commit.op_class_0::SimdFloatCvt            0      0.00%     81.55% # Class of committed instruction
system.cpu.commit.op_class_0::SimdFloatDiv            0      0.00%     81.55% # Class of committed instruction
system.cpu.commit.op_class_0::SimdFloatMisc            0      0.00%     81.55% # Class of committed instruction
system.cpu.commit.op_class_0::SimdFloatMult            0      0.00%     81.55% # Class of committed instruction
system.cpu.commit.op_class_0::SimdFloatMultAcc            0      0.00%     81.55% # Class of committed instruction
system.cpu.commit.op_class_0::SimdFloatSqrt            0      0.00%     81.55% # Class of committed instruction
system.cpu.commit.op_class_0::SimdReduceAdd            0      0.00%     81.55% # Class of committed instruction
system.cpu.commit.op_class_0::SimdReduceAlu            0      0.00%     81.55% # Class of committed instruction
system.cpu.commit.op_class_0::SimdReduceCmp            0      0.00%     81.55% # Class of committed instruction
system.cpu.commit.op_class_0::SimdFloatReduceAdd            0      0.00%     81.55% # Class of committed instruction
system.cpu.commit.op_class_0::SimdFloatReduceCmp            0      0.00%     81.55% # Class of committed instruction
system.cpu.commit.op_class_0::SimdAes               0      0.00%     81.55% # Class of committed instruction
system.cpu.commit.op_class_0::SimdAesMix            0      0.00%     81.55% # Class of committed instruction
system.cpu.commit.op_class_0::SimdSha1Hash            0      0.00%     81.55% # Class of committed instruction
system.cpu.commit.op_class_0::SimdSha1Hash2            0      0.00%     81.55% # Class of committed instruction
system.cpu.commit.op_class_0::SimdSha256Hash            0      0.00%     81.55% # Class of committed instruction
system.cpu.commit.op_class_0::SimdSha256Hash2            0      0.00%     81.55% # Class of committed instruction
system.cpu.commit.op_class_0::SimdShaSigma2            0      0.00%     81.55% # Class of committed instruction
system.cpu.commit.op_class_0::SimdShaSigma3            0      0.00%     81.55% # Class of committed instruction
system.cpu.commit.op_class_0::SimdPredAlu            0      0.00%     81.55% # Class of committed instruction
system.cpu.commit.op_class_0::MemRead          468388     13.16%     94.71% # Class of committed instruction
system.cpu.commit.op_class_0::MemWrite         157325      4.42%     99.13% # Class of committed instruction
system.cpu.commit.op_class_0::FloatMemRead        19038      0.53%     99.66% # Class of committed instruction
system.cpu.commit.op_class_0::FloatMemWrite        12069      0.34%    100.00% # Class of committed instruction
system.cpu.commit.op_class_0::IprAccess             0      0.00%    100.00% # Class of committed instruction
system.cpu.commit.op_class_0::InstPrefetch            0      0.00%    100.00% # Class of committed instruction
system.cpu.commit.op_class_0::total           3559645                       # Class of committed instruction
system.cpu.commit.refs                         656820                       # Number of memory references committed
system.cpu.commit.swp_count                         0                       # Number of s/w prefetches committed
system.cpu.commit.vec_insts                         0                       # Number of committed Vector instructions.
system.cpu.committedInsts                     2049221                       # Number of Instructions Simulated
system.cpu.committedOps                       3559645                       # Number of Ops (including micro ops) Simulated
system.cpu.cpi                               1.320278                       # CPI: Cycles Per Instruction
system.cpu.cpi_total                         1.320278                       # CPI: Total CPI of All Threads
system.cpu.dcache.prefetcher.num_hwpf_issued         7716                       # number of hwpf issued
system.cpu.dcache.prefetcher.pfBufferHit        33385                       # number of redundant prefetches already in prefetch queue
system.cpu.dcache.prefetcher.pfIdentified        48288                       # number of prefetch candidates identified
system.cpu.dcache.prefetcher.pfInCache              0                       # number of redundant prefetches already in cache/mshr dropped
system.cpu.dcache.prefetcher.pfRemovedFull            0                       # number of prefetches dropped due to prefetch queue size
system.cpu.dcache.prefetcher.pfSpanPage          4352                       # number of prefetches that crossed the page
system.cpu.decode.BlockedCycles               1022048                       # Number of cycles decode is blocked
system.cpu.decode.DecodedInsts                4665962                       # Number of instructions handled by decode
system.cpu.decode.IdleCycles                   290003                       # Number of cycles decode is idle
system.cpu.decode.RunCycles                   1132366                       # Number of cycles decode is running
system.cpu.decode.SquashCycles                  24372                       # Number of cycles decode is squashing
system.cpu.decode.UnblockCycles                 88268                       # Number of cycles decode is unblocking
system.cpu.dtb.rdAccesses                      571410                       # TLB accesses on read requests
system.cpu.dtb.rdMisses                          2029                       # TLB misses on read requests
system.cpu.dtb.wrAccesses                      189597                       # TLB accesses on write requests
system.cpu.dtb.wrMisses                           164                       # TLB misses on write requests
system.cpu.fetch.Branches                      486816                       # Number of branches that fetch encountered
system.cpu.fetch.CacheLines                    239889                       # Number of cache lines fetched
system.cpu.fetch.Cycles                       2204929                       # Number of cycles fetch has run and was not squashing or blocked
system.cpu.fetch.IcacheSquashes                  4608                       # Number of outstanding Icache misses that were squashed
system.cpu.fetch.Insts                        2822906                       # Number of instructions fetch has processed
system.cpu.fetch.MiscStallCycles                  109                       # Number of cycles fetch has spent waiting on interrupts, or bad addresses, or out of MSHRs
system.cpu.fetch.PendingQuiesceStallCycles           10                       # Number of stall cycles due to pending quiesce instructions
system.cpu.fetch.PendingTrapStallCycles           599                       # Number of stall cycles due to pending traps
system.cpu.fetch.SquashCycles                   48744                       # Number of cycles fetch has spent squashing
system.cpu.fetch.branchRate                  0.179933                       # Number of branch fetches per cycle
system.cpu.fetch.icacheStallCycles             327038                       # Number of cycles fetch is stalled on an Icache miss
system.cpu.fetch.predictedBranches             248170                       # Number of branches that fetch has predicted taken
system.cpu.fetch.rate                        1.043379                       # Number of inst fetches per cycle
system.cpu.fetch.rateDist::samples            2557057                       # Number of instructions fetched each cycle (Total)
system.cpu.fetch.rateDist::mean              1.933507                       # Number of instructions fetched each cycle (Total)
system.cpu.fetch.rateDist::stdev             1.930951                       # Number of instructions fetched each cycle (Total)
system.cpu.fetch.rateDist::underflows               0      0.00%      0.00% # Number of instructions fetched each cycle (Total)
system.cpu.fetch.rateDist::0                  1217630     47.62%     47.62% # Number of instructions fetched each cycle (Total)
system.cpu.fetch.rateDist::1                    73335      2.87%     50.49% # Number of instructions fetched each cycle (Total)
system.cpu.fetch.rateDist::2                    59048      2.31%     52.80% # Number of instructions fetched each cycle (Total)
system.cpu.fetch.rateDist::3                    75519      2.95%     55.75% # Number of instructions fetched each cycle (Total)
system.cpu.fetch.rateDist::4                  1131525     44.25%    100.00% # Number of instructions fetched each cycle (Total)
system.cpu.fetch.rateDist::overflows                0      0.00%    100.00% # Number of instructions fetched each cycle (Total)
system.cpu.fetch.rateDist::min_value                0                       # Number of instructions fetched each cycle (Total)
system.cpu.fetch.rateDist::max_value                4                       # Number of instructions fetched each cycle (Total)
system.cpu.fetch.rateDist::total              2557057                       # Number of instructions fetched each cycle (Total)
system.cpu.fp_regfile_reads                    118523                       # number of floating regfile reads
system.cpu.fp_regfile_writes                    64777                       # number of floating regfile writes
system.cpu.fuPool.fu_ticks_busy::IntALU(0)    215631600                       # Total ticks fu was busy
system.cpu.fuPool.fu_ticks_busy::IntALU(1)    215631600                       # Total ticks fu was busy
system.cpu.fuPool.fu_ticks_busy::IntALU(2)    215631600                       # Total ticks fu was busy
system.cpu.fuPool.fu_ticks_busy::IntALU(3)    215631200                       # Total ticks fu was busy
system.cpu.fuPool.fu_ticks_busy::IntALU(4)    215631200                       # Total ticks fu was busy
system.cpu.fuPool.fu_ticks_busy::IntALU(5)    215631200                       # Total ticks fu was busy
system.cpu.fuPool.fu_ticks_busy::IntMultDiv(0)      8682800                       # Total ticks fu was busy
system.cpu.fuPool.fu_ticks_busy::IntMultDiv(1)      8682000                       # Total ticks fu was busy
system.cpu.fuPool.fu_ticks_busy::FP_ALU(0)       550000                       # Total ticks fu was busy
system.cpu.fuPool.fu_ticks_busy::FP_ALU(1)       550000                       # Total ticks fu was busy
system.cpu.fuPool.fu_ticks_busy::FP_ALU(2)       550000                       # Total ticks fu was busy
system.cpu.fuPool.fu_ticks_busy::FP_ALU(3)       550000                       # Total ticks fu was busy
system.cpu.fuPool.fu_ticks_busy::FP_MultDiv(0)            0                       # Total ticks fu was busy
system.cpu.fuPool.fu_ticks_busy::FP_MultDiv(1)            0                       # Total ticks fu was busy
system.cpu.fuPool.fu_ticks_busy::SIMD_Unit(0)      4346400                       # Total ticks fu was busy
system.cpu.fuPool.fu_ticks_busy::SIMD_Unit(1)      4300800                       # Total ticks fu was busy
system.cpu.fuPool.fu_ticks_busy::SIMD_Unit(2)      4510800                       # Total ticks fu was busy
system.cpu.fuPool.fu_ticks_busy::SIMD_Unit(3)      4548000                       # Total ticks fu was busy
system.cpu.fuPool.fu_ticks_busy::PredALU(0)            0                       # Total ticks fu was busy
system.cpu.fuPool.fu_ticks_busy::RdWrPort(0)     77625200                       # Total ticks fu was busy
system.cpu.fuPool.fu_ticks_busy::RdWrPort(1)     77551600                       # Total ticks fu was busy
system.cpu.fuPool.fu_ticks_busy::RdWrPort(2)     77558400                       # Total ticks fu was busy
system.cpu.fuPool.fu_ticks_busy::RdWrPort(3)     77578800                       # Total ticks fu was busy
system.cpu.fuPool.fu_ticks_busy::IprPort(0)            0                       # Total ticks fu was busy
system.cpu.fuPool.fu_ticks_busy::total     1641373200                       # Total ticks fu was busy
system.cpu.icache.prefetcher.num_hwpf_issued            0                       # number of hwpf issued
system.cpu.icache.prefetcher.pfBufferHit            0                       # number of redundant prefetches already in prefetch queue
system.cpu.icache.prefetcher.pfIdentified            0                       # number of prefetch candidates identified
system.cpu.icache.prefetcher.pfInCache              0                       # number of redundant prefetches already in cache/mshr dropped
system.cpu.icache.prefetcher.pfRemovedFull            0                       # number of prefetches dropped due to prefetch queue size
system.cpu.icache.prefetcher.pfSpanPage             0                       # number of prefetches that crossed the page
system.cpu.idleCycles                          148485                       # Total number of cycles that the CPU has spent unscheduled due to idling
system.cpu.iew.branchMispredicts                28703                       # Number of branch mispredicts detected at execute
system.cpu.iew.exec_branches                   372483                       # Number of branches executed
system.cpu.iew.exec_nop                             0                       # number of nop insts executed
system.cpu.iew.exec_rate                     1.513589                       # Inst execution rate
system.cpu.iew.exec_refs                       762735                       # number of memory reference insts executed
system.cpu.iew.exec_stores                     189586                       # Number of stores executed
system.cpu.iew.exec_swp                             0                       # number of swp insts executed
system.cpu.iew.iewBlockCycles                  683005                       # Number of cycles IEW is blocking
system.cpu.iew.iewDispLoadInsts                603701                       # Number of dispatched load instructions
system.cpu.iew.iewDispNonSpecInsts                914                       # Number of dispatched non-speculative instructions
system.cpu.iew.iewDispSquashedInsts               620                       # Number of squashed instructions skipped by dispatch
system.cpu.iew.iewDispStoreInsts               200180                       # Number of dispatched store instructions
system.cpu.iew.iewDispatchedInsts             4448771                       # Number of instructions dispatched to IQ
system.cpu.iew.iewExecLoadInsts                573149                       # Number of load instructions executed
system.cpu.iew.iewExecSquashedInsts             34429                       # Number of squashed instructions skipped in execute
system.cpu.iew.iewExecutedInsts               4095078                       # Number of executed instructions
system.cpu.iew.iewIQFullEvents                   3279                       # Number of times the IQ has become full, causing a stall
system.cpu.iew.iewIdleCycles                        0                       # Number of cycles IEW is idle
system.cpu.iew.iewLSQFullEvents                  9454                       # Number of times the LSQ has become full, causing a stall
system.cpu.iew.iewSquashCycles                  24372                       # Number of cycles IEW is squashing
system.cpu.iew.iewUnblockCycles                 15549                       # Number of cycles IEW is unblocking
system.cpu.iew.lsq.thread0.blockedLoads             0                       # Number of blocked loads due to partial load-store forwarding
system.cpu.iew.lsq.thread0.cacheBlocked           609                       # Number of times an access to memory failed due to the cache being blocked
system.cpu.iew.lsq.thread0.forwLoads            39794                       # Number of loads that had data forwarded from stores
system.cpu.iew.lsq.thread0.ignoredResponses          235                       # Number of memory responses ignored because the instruction is squashed
system.cpu.iew.lsq.thread0.invAddrLoads             0                       # Number of loads ignored due to an invalid address
system.cpu.iew.lsq.thread0.invAddrSwpfs             0                       # Number of software prefetches ignored due to an invalid address
system.cpu.iew.lsq.thread0.memOrderViolation           83                       # Number of memory ordering violations
system.cpu.iew.lsq.thread0.rescheduledLoads            0                       # Number of loads that were rescheduled
system.cpu.iew.lsq.thread0.squashedLoads       116273                       # Number of loads squashed
system.cpu.iew.lsq.thread0.squashedStores        30785                       # Number of stores squashed
system.cpu.iew.memOrderViolationEvents             83                       # Number of memory order violations
system.cpu.iew.predictedNotTakenIncorrect        20582                       # Number of branches that were predicted not taken incorrectly
system.cpu.iew.predictedTakenIncorrect           8121                       # Number of branches that were predicted taken incorrectly
system.cpu.iew.wb_consumers                   5750990                       # num instructions consuming a value
system.cpu.iew.wb_count                       4073115                       # cumulative count of insts written-back
system.cpu.iew.wb_fanout                     0.566321                       # average fanout of values written-back
system.cpu.iew.wb_producers                   3256906                       # num instructions producing a value
system.cpu.iew.wb_rate                       1.505471                       # insts written-back per cycle
system.cpu.iew.wb_sent                        4080028                       # cumulative count of insts sent to commit
system.cpu.int_regfile_reads                  6348321                       # number of integer regfile reads
system.cpu.int_regfile_writes                 3523380                       # number of integer regfile writes
system.cpu.ipc                               0.757416                       # IPC: Instructions Per Cycle
system.cpu.ipc_total                         0.757416                       # IPC: Total IPC of All Threads
system.cpu.iq.FU_type_0::No_OpClass             26074      0.63%      0.63% # Type of FU issued
system.cpu.iq.FU_type_0::IntAlu               3234472     78.33%     78.96% # Type of FU issued
system.cpu.iq.FU_type_0::IntMult                 1555      0.04%     78.99% # Type of FU issued
system.cpu.iq.FU_type_0::IntDiv                 41857      1.01%     80.01% # Type of FU issued
system.cpu.iq.FU_type_0::FloatAdd                4260      0.10%     80.11% # Type of FU issued
system.cpu.iq.FU_type_0::FloatCmp                   0      0.00%     80.11% # Type of FU issued
system.cpu.iq.FU_type_0::FloatCvt                1240      0.03%     80.14% # Type of FU issued
system.cpu.iq.FU_type_0::FloatMult                  0      0.00%     80.14% # Type of FU issued
system.cpu.iq.FU_type_0::FloatMultAcc               0      0.00%     80.14% # Type of FU issued
system.cpu.iq.FU_type_0::FloatDiv                   0      0.00%     80.14% # Type of FU issued
system.cpu.iq.FU_type_0::FloatMisc                  0      0.00%     80.14% # Type of FU issued
system.cpu.iq.FU_type_0::FloatSqrt                  0      0.00%     80.14% # Type of FU issued
system.cpu.iq.FU_type_0::SimdAdd                 6788      0.16%     80.31% # Type of FU issued
system.cpu.iq.FU_type_0::SimdAddAcc                 0      0.00%     80.31% # Type of FU issued
system.cpu.iq.FU_type_0::SimdAlu                14778      0.36%     80.66% # Type of FU issued
system.cpu.iq.FU_type_0::SimdCmp                    0      0.00%     80.66% # Type of FU issued
system.cpu.iq.FU_type_0::SimdCvt                13667      0.33%     80.99% # Type of FU issued
system.cpu.iq.FU_type_0::SimdMisc                7033      0.17%     81.17% # Type of FU issued
system.cpu.iq.FU_type_0::SimdMult                   0      0.00%     81.17% # Type of FU issued
system.cpu.iq.FU_type_0::SimdMultAcc                0      0.00%     81.17% # Type of FU issued
system.cpu.iq.FU_type_0::SimdShift               1999      0.05%     81.21% # Type of FU issued
system.cpu.iq.FU_type_0::SimdShiftAcc               0      0.00%     81.21% # Type of FU issued
system.cpu.iq.FU_type_0::SimdDiv                    0      0.00%     81.21% # Type of FU issued
system.cpu.iq.FU_type_0::SimdSqrt                   0      0.00%     81.21% # Type of FU issued
system.cpu.iq.FU_type_0::SimdFloatAdd               0      0.00%     81.21% # Type of FU issued
system.cpu.iq.FU_type_0::SimdFloatAlu               0      0.00%     81.21% # Type of FU issued
system.cpu.iq.FU_type_0::SimdFloatCmp               0      0.00%     81.21% # Type of FU issued
system.cpu.iq.FU_type_0::SimdFloatCvt               0      0.00%     81.21% # Type of FU issued
system.cpu.iq.FU_type_0::SimdFloatDiv               0      0.00%     81.21% # Type of FU issued
system.cpu.iq.FU_type_0::SimdFloatMisc              0      0.00%     81.21% # Type of FU issued
system.cpu.iq.FU_type_0::SimdFloatMult              0      0.00%     81.21% # Type of FU issued
system.cpu.iq.FU_type_0::SimdFloatMultAcc            0      0.00%     81.21% # Type of FU issued
system.cpu.iq.FU_type_0::SimdFloatSqrt              0      0.00%     81.21% # Type of FU issued
system.cpu.iq.FU_type_0::SimdReduceAdd              0      0.00%     81.21% # Type of FU issued
system.cpu.iq.FU_type_0::SimdReduceAlu              0      0.00%     81.21% # Type of FU issued
system.cpu.iq.FU_type_0::SimdReduceCmp              0      0.00%     81.21% # Type of FU issued
system.cpu.iq.FU_type_0::SimdFloatReduceAdd            0      0.00%     81.21% # Type of FU issued
system.cpu.iq.FU_type_0::SimdFloatReduceCmp            0      0.00%     81.21% # Type of FU issued
system.cpu.iq.FU_type_0::SimdAes                    0      0.00%     81.21% # Type of FU issued
system.cpu.iq.FU_type_0::SimdAesMix                 0      0.00%     81.21% # Type of FU issued
system.cpu.iq.FU_type_0::SimdSha1Hash               0      0.00%     81.21% # Type of FU issued
system.cpu.iq.FU_type_0::SimdSha1Hash2              0      0.00%     81.21% # Type of FU issued
system.cpu.iq.FU_type_0::SimdSha256Hash             0      0.00%     81.21% # Type of FU issued
system.cpu.iq.FU_type_0::SimdSha256Hash2            0      0.00%     81.21% # Type of FU issued
system.cpu.iq.FU_type_0::SimdShaSigma2              0      0.00%     81.21% # Type of FU issued
system.cpu.iq.FU_type_0::SimdShaSigma3              0      0.00%     81.21% # Type of FU issued
system.cpu.iq.FU_type_0::SimdPredAlu                0      0.00%     81.21% # Type of FU issued
system.cpu.iq.FU_type_0::MemRead               559039     13.54%     94.75% # Type of FU issued
system.cpu.iq.FU_type_0::MemWrite              178596      4.32%     99.08% # Type of FU issued
system.cpu.iq.FU_type_0::FloatMemRead           24471      0.59%     99.67% # Type of FU issued
system.cpu.iq.FU_type_0::FloatMemWrite          13681      0.33%    100.00% # Type of FU issued
system.cpu.iq.FU_type_0::IprAccess                  0      0.00%    100.00% # Type of FU issued
system.cpu.iq.FU_type_0::InstPrefetch               0      0.00%    100.00% # Type of FU issued
system.cpu.iq.FU_type_0::total                4129510                       # Type of FU issued
system.cpu.iq.fp_alu_accesses                   88881                       # Number of floating point alu accesses
system.cpu.iq.fp_inst_queue_reads              179021                       # Number of floating instruction queue reads
system.cpu.iq.fp_inst_queue_wakeup_accesses        85730                       # Number of floating instruction queue wakeup accesses
system.cpu.iq.fp_inst_queue_writes             127396                       # Number of floating instruction queue writes
system.cpu.iq.fu_busy_cnt                           0                       # FU busy when requested
system.cpu.iq.fu_busy_rate                          0                       # FU busy rate (busy events/executed inst)
system.cpu.iq.fu_full::No_OpClass                   0                       # attempts to use FU when none available
system.cpu.iq.fu_full::IntAlu                       0                       # attempts to use FU when none available
system.cpu.iq.fu_full::IntMult                      0                       # attempts to use FU when none available
system.cpu.iq.fu_full::IntDiv                       0                       # attempts to use FU when none available
system.cpu.iq.fu_full::FloatAdd                     0                       # attempts to use FU when none available
system.cpu.iq.fu_full::FloatCmp                     0                       # attempts to use FU when none available
system.cpu.iq.fu_full::FloatCvt                     0                       # attempts to use FU when none available
system.cpu.iq.fu_full::FloatMult                    0                       # attempts to use FU when none available
system.cpu.iq.fu_full::FloatMultAcc                 0                       # attempts to use FU when none available
system.cpu.iq.fu_full::FloatDiv                     0                       # attempts to use FU when none available
system.cpu.iq.fu_full::FloatMisc                    0                       # attempts to use FU when none available
system.cpu.iq.fu_full::FloatSqrt                    0                       # attempts to use FU when none available
system.cpu.iq.fu_full::SimdAdd                      0                       # attempts to use FU when none available
system.cpu.iq.fu_full::SimdAddAcc                   0                       # attempts to use FU when none available
system.cpu.iq.fu_full::SimdAlu                      0                       # attempts to use FU when none available
system.cpu.iq.fu_full::SimdCmp                      0                       # attempts to use FU when none available
system.cpu.iq.fu_full::SimdCvt                      0                       # attempts to use FU when none available
system.cpu.iq.fu_full::SimdMisc                     0                       # attempts to use FU when none available
system.cpu.iq.fu_full::SimdMult                     0                       # attempts to use FU when none available
system.cpu.iq.fu_full::SimdMultAcc                  0                       # attempts to use FU when none available
system.cpu.iq.fu_full::SimdShift                    0                       # attempts to use FU when none available
system.cpu.iq.fu_full::SimdShiftAcc                 0                       # attempts to use FU when none available
system.cpu.iq.fu_full::SimdDiv                      0                       # attempts to use FU when none available
system.cpu.iq.fu_full::SimdSqrt                     0                       # attempts to use FU when none available
system.cpu.iq.fu_full::SimdFloatAdd                 0                       # attempts to use FU when none available
system.cpu.iq.fu_full::SimdFloatAlu                 0                       # attempts to use FU when none available
system.cpu.iq.fu_full::SimdFloatCmp                 0                       # attempts to use FU when none available
system.cpu.iq.fu_full::SimdFloatCvt                 0                       # attempts to use FU when none available
system.cpu.iq.fu_full::SimdFloatDiv                 0                       # attempts to use FU when none available
system.cpu.iq.fu_full::SimdFloatMisc                0                       # attempts to use FU when none available
system.cpu.iq.fu_full::SimdFloatMult                0                       # attempts to use FU when none available
system.cpu.iq.fu_full::SimdFloatMultAcc             0                       # attempts to use FU when none available
system.cpu.iq.fu_full::SimdFloatSqrt                0                       # attempts to use FU when none available
system.cpu.iq.fu_full::SimdReduceAdd                0                       # attempts to use FU when none available
system.cpu.iq.fu_full::SimdReduceAlu                0                       # attempts to use FU when none available
system.cpu.iq.fu_full::SimdReduceCmp                0                       # attempts to use FU when none available
system.cpu.iq.fu_full::SimdFloatReduceAdd            0                       # attempts to use FU when none available
system.cpu.iq.fu_full::SimdFloatReduceCmp            0                       # attempts to use FU when none available
system.cpu.iq.fu_full::SimdAes                      0                       # attempts to use FU when none available
system.cpu.iq.fu_full::SimdAesMix                   0                       # attempts to use FU when none available
system.cpu.iq.fu_full::SimdSha1Hash                 0                       # attempts to use FU when none available
system.cpu.iq.fu_full::SimdSha1Hash2                0                       # attempts to use FU when none available
system.cpu.iq.fu_full::SimdSha256Hash               0                       # attempts to use FU when none available
system.cpu.iq.fu_full::SimdSha256Hash2              0                       # attempts to use FU when none available
system.cpu.iq.fu_full::SimdShaSigma2                0                       # attempts to use FU when none available
system.cpu.iq.fu_full::SimdShaSigma3                0                       # attempts to use FU when none available
system.cpu.iq.fu_full::SimdPredAlu                  0                       # attempts to use FU when none available
system.cpu.iq.fu_full::MemRead                      0                       # attempts to use FU when none available
system.cpu.iq.fu_full::MemWrite                     0                       # attempts to use FU when none available
system.cpu.iq.fu_full::FloatMemRead                 0                       # attempts to use FU when none available
system.cpu.iq.fu_full::FloatMemWrite                0                       # attempts to use FU when none available
system.cpu.iq.fu_full::IprAccess                    0                       # attempts to use FU when none available
system.cpu.iq.fu_full::InstPrefetch                 0                       # attempts to use FU when none available
system.cpu.iq.int_alu_accesses                4014555                       # Number of integer alu accesses
system.cpu.iq.int_inst_queue_reads           10655321                       # Number of integer instruction queue reads
system.cpu.iq.int_inst_queue_wakeup_accesses      3987385                       # Number of integer instruction queue wakeup accesses
system.cpu.iq.int_inst_queue_writes           5210571                       # Number of integer instruction queue writes
system.cpu.iq.iqInstsAdded                    4447696                       # Number of instructions added to the IQ (excludes non-spec)
system.cpu.iq.iqInstsIssued                   4129510                       # Number of instructions issued
system.cpu.iq.iqNonSpecInstsAdded                1075                       # Number of non-speculative instructions added to the IQ
system.cpu.iq.iqSquashedInstsExamined          889115                       # Number of squashed instructions iterated over during squash; mainly for profiling
system.cpu.iq.iqSquashedInstsIssued             18268                       # Number of squashed instructions issued
system.cpu.iq.iqSquashedNonSpecRemoved            343                       # Number of squashed non-spec instructions that were removed
system.cpu.iq.iqSquashedOperandsExamined      1320142                       # Number of squashed operands that are examined and possibly removed from graph
system.cpu.iq.issued_per_cycle::samples       2557057                       # Number of insts issued each cycle
system.cpu.iq.issued_per_cycle::mean         1.614946                       # Number of insts issued each cycle
system.cpu.iq.issued_per_cycle::stdev        1.669547                       # Number of insts issued each cycle
system.cpu.iq.issued_per_cycle::underflows            0      0.00%      0.00% # Number of insts issued each cycle
system.cpu.iq.issued_per_cycle::0             1161979     45.44%     45.44% # Number of insts issued each cycle
system.cpu.iq.issued_per_cycle::1              172306      6.74%     52.18% # Number of insts issued each cycle
system.cpu.iq.issued_per_cycle::2              298486     11.67%     63.85% # Number of insts issued each cycle
system.cpu.iq.issued_per_cycle::3              336912     13.18%     77.03% # Number of insts issued each cycle
system.cpu.iq.issued_per_cycle::4              587374     22.97%    100.00% # Number of insts issued each cycle
system.cpu.iq.issued_per_cycle::overflows            0      0.00%    100.00% # Number of insts issued each cycle
system.cpu.iq.issued_per_cycle::min_value            0                       # Number of insts issued each cycle
system.cpu.iq.issued_per_cycle::max_value            4                       # Number of insts issued each cycle
system.cpu.iq.issued_per_cycle::total         2557057                       # Number of insts issued each cycle
system.cpu.iq.rate                           1.526315                       # Inst issue rate
system.cpu.iq.vec_alu_accesses                      0                       # Number of vector alu accesses
system.cpu.iq.vec_inst_queue_reads                  0                       # Number of vector instruction queue reads
system.cpu.iq.vec_inst_queue_wakeup_accesses            0                       # Number of vector instruction queue wakeup accesses
system.cpu.iq.vec_inst_queue_writes                 0                       # Number of vector instruction queue writes
system.cpu.itb.rdAccesses                           0                       # TLB accesses on read requests
system.cpu.itb.rdMisses                             0                       # TLB misses on read requests
system.cpu.itb.wrAccesses                      239989                       # TLB accesses on write requests
system.cpu.itb.wrMisses                           339                       # TLB misses on write requests
system.cpu.memDep0.conflictingLoads             11450                       # Number of conflicting loads.
system.cpu.memDep0.conflictingStores             4138                       # Number of conflicting stores.
system.cpu.memDep0.insertedLoads               603701                       # Number of loads inserted to the mem dependence unit.
system.cpu.memDep0.insertedStores              200180                       # Number of stores inserted to the mem dependence unit.
system.cpu.misc_regfile_reads                 1543815                       # number of misc regfile reads
system.cpu.misc_regfile_writes                    675                       # number of misc regfile writes
system.cpu.numCycles                          2705542                       # number of cpu cycles simulated
system.cpu.numWorkItemsCompleted                    0                       # number of work items this cpu completed
system.cpu.numWorkItemsStarted                      0                       # number of work items this cpu started
system.cpu.process.numSyscalls                     56                       # Number of system calls
system.cpu.rename.BlockCycles                  831356                       # Number of cycles rename is blocking
system.cpu.rename.CommittedMaps               4887046                       # Number of HB maps that are committed
system.cpu.rename.FullRegisterEvents              256                       # Number of times there has been no free registers
system.cpu.rename.IQFullEvents                  46128                       # Number of times rename has blocked due to IQ full
system.cpu.rename.IdleCycles                   340066                       # Number of cycles rename is idle
system.cpu.rename.LQFullEvents                  25058                       # Number of times rename has blocked due to LQ full
system.cpu.rename.ROBFullEvents                  6205                       # Number of times rename has blocked due to ROB full
system.cpu.rename.RenameLookups              12001243                       # Number of register rename lookups that rename has made
system.cpu.rename.RenamedInsts                4591119                       # Number of instructions processed by rename
system.cpu.rename.RenamedOperands             6287559                       # Number of destination operands rename has renamed
system.cpu.rename.RunCycles                   1162302                       # Number of cycles rename is running
system.cpu.rename.SQFullEvents                  71327                       # Number of times rename has blocked due to SQ full
system.cpu.rename.SquashCycles                  24372                       # Number of cycles rename is squashing
system.cpu.rename.UnblockCycles                179760                       # Number of cycles rename is unblocking
system.cpu.rename.UndoneMaps                  1400490                       # Number of HB maps that are undone due to squashing
system.cpu.rename.fp_rename_lookups            150661                       # Number of floating rename lookups
system.cpu.rename.int_rename_lookups          7298024                       # Number of integer rename lookups
system.cpu.rename.serializeStallCycles          19201                       # count of cycles rename stalled for serializing inst
system.cpu.rename.serializingInsts                869                       # count of serializing insts renamed
system.cpu.rename.skidInsts                    205447                       # count of insts added to the skid buffer
system.cpu.rename.tempSerializingInsts            913                       # count of temporary serializing insts renamed
system.cpu.rob.rob_reads                      6173057                       # The number of ROB reads
system.cpu.rob.rob_writes                     9140958                       # The number of ROB writes
system.cpu.timesIdled                            1467                       # Number of times that the entire CPU went into an idle state and unscheduled itself
system.l2bus.snoop_filter.hit_multi_requests            8                       # Number of requests hitting in the snoop filter with multiple (>1) holders of the requested data.
system.l2bus.snoop_filter.hit_multi_snoops            0                       # Number of snoops hitting in the snoop filter with multiple (>1) holders of the requested data.
system.l2bus.snoop_filter.hit_single_requests        18098                       # Number of requests hitting in the snoop filter with a single holder of the requested data.
system.l2bus.snoop_filter.hit_single_snoops          410                       # Number of snoops hitting in the snoop filter with a single holder of the requested data.
system.l2bus.snoop_filter.tot_requests          37476                       # Total number of requests made to the snoop filter.
system.l2bus.snoop_filter.tot_snoops              410                       # Total number of snoops made to the snoop filter.
system.l2cache.prefetcher.num_hwpf_issued          782                       # number of hwpf issued
system.l2cache.prefetcher.pfBufferHit               0                       # number of redundant prefetches already in prefetch queue
system.l2cache.prefetcher.pfIdentified            782                       # number of prefetch candidates identified
system.l2cache.prefetcher.pfInCache                 0                       # number of redundant prefetches already in cache/mshr dropped
system.l2cache.prefetcher.pfRemovedFull             0                       # number of prefetches dropped due to prefetch queue size
system.l2cache.prefetcher.pfSpanPage              162                       # number of prefetches that crossed the page
system.membus.snoop_filter.hit_multi_requests            0                       # Number of requests hitting in the snoop filter with multiple (>1) holders of the requested data.
system.membus.snoop_filter.hit_multi_snoops            0                       # Number of snoops hitting in the snoop filter with multiple (>1) holders of the requested data.
system.membus.snoop_filter.hit_single_requests         9207                       # Number of requests hitting in the snoop filter with a single holder of the requested data.
system.membus.snoop_filter.hit_single_snoops            0                       # Number of snoops hitting in the snoop filter with a single holder of the requested data.
system.membus.snoop_filter.tot_requests         22533                       # Total number of requests made to the snoop filter.
system.membus.snoop_filter.tot_snoops               0                       # Total number of snoops made to the snoop filter.
system.membus.pwrStateResidencyTicks::UNDEFINED   1082216400                       # Cumulative time (in ticks) in various power states
system.membus.trans_dist::ReadResp              11983                       # Transaction distribution
system.membus.trans_dist::WritebackDirty         1338                       # Transaction distribution
system.membus.trans_dist::CleanEvict             7869                       # Transaction distribution
system.membus.trans_dist::ReadExReq              1343                       # Transaction distribution
system.membus.trans_dist::ReadExResp             1343                       # Transaction distribution
system.membus.trans_dist::ReadSharedReq         11983                       # Transaction distribution
system.membus.pkt_count_system.l2cache.mem_side::system.mem_ctrl.port        35859                       # Packet count per connected master and slave (bytes)
system.membus.pkt_count_system.l2cache.mem_side::total        35859                       # Packet count per connected master and slave (bytes)
system.membus.pkt_count::total                  35859                       # Packet count per connected master and slave (bytes)
system.membus.pkt_size_system.l2cache.mem_side::system.mem_ctrl.port       938496                       # Cumulative packet size per connected master and slave (bytes)
system.membus.pkt_size_system.l2cache.mem_side::total       938496                       # Cumulative packet size per connected master and slave (bytes)
system.membus.pkt_size::total                  938496                       # Cumulative packet size per connected master and slave (bytes)
system.membus.snoops                                0                       # Total snoops (count)
system.membus.snoopTraffic                          0                       # Total snoop traffic (bytes)
system.membus.snoop_fanout::samples             13326                       # Request fanout histogram
system.membus.snoop_fanout::mean                    0                       # Request fanout histogram
system.membus.snoop_fanout::stdev                   0                       # Request fanout histogram
system.membus.snoop_fanout::underflows              0      0.00%      0.00% # Request fanout histogram
system.membus.snoop_fanout::0                   13326    100.00%    100.00% # Request fanout histogram
system.membus.snoop_fanout::1                       0      0.00%    100.00% # Request fanout histogram
system.membus.snoop_fanout::overflows               0      0.00%    100.00% # Request fanout histogram
system.membus.snoop_fanout::min_value               0                       # Request fanout histogram
system.membus.snoop_fanout::max_value               0                       # Request fanout histogram
system.membus.snoop_fanout::total               13326                       # Request fanout histogram
system.membus.reqLayer2.occupancy            11182772                       # Layer occupancy (ticks)
system.membus.reqLayer2.utilization               1.0                       # Layer utilization (%)
system.membus.respLayer0.occupancy           28938828                       # Layer occupancy (ticks)
system.membus.respLayer0.utilization              2.7                       # Layer utilization (%)
system.l2bus.pwrStateResidencyTicks::UNDEFINED   1082216400                       # Cumulative time (in ticks) in various power states
system.l2bus.trans_dist::ReadResp               17300                       # Transaction distribution
system.l2bus.trans_dist::WritebackDirty          4101                       # Transaction distribution
system.l2bus.trans_dist::CleanEvict             23280                       # Transaction distribution
system.l2bus.trans_dist::HardPFReq               1080                       # Transaction distribution
system.l2bus.trans_dist::ReadExReq               2078                       # Transaction distribution
system.l2bus.trans_dist::ReadExResp              2078                       # Transaction distribution
system.l2bus.trans_dist::ReadSharedReq          17300                       # Transaction distribution
system.l2bus.pkt_count_system.cpu.icache.mem_side::system.l2cache.cpu_side         7551                       # Packet count per connected master and slave (bytes)
system.l2bus.pkt_count_system.cpu.dcache.mem_side::system.l2cache.cpu_side        49301                       # Packet count per connected master and slave (bytes)
system.l2bus.pkt_count::total                   56852                       # Packet count per connected master and slave (bytes)
system.l2bus.pkt_size_system.cpu.icache.mem_side::system.l2cache.cpu_side       166464                       # Cumulative packet size per connected master and slave (bytes)
system.l2bus.pkt_size_system.cpu.dcache.mem_side::system.l2cache.cpu_side      1250432                       # Cumulative packet size per connected master and slave (bytes)
system.l2bus.pkt_size::total                  1416896                       # Cumulative packet size per connected master and slave (bytes)
system.l2bus.snoops                             10365                       # Total snoops (count)
system.l2bus.snoopTraffic                       85760                       # Total snoop traffic (bytes)
system.l2bus.snoop_fanout::samples              29741                       # Request fanout histogram
system.l2bus.snoop_fanout::mean              0.014055                       # Request fanout histogram
system.l2bus.snoop_fanout::stdev             0.117718                       # Request fanout histogram
system.l2bus.snoop_fanout::underflows               0      0.00%      0.00% # Request fanout histogram
system.l2bus.snoop_fanout::0                    29323     98.59%     98.59% # Request fanout histogram
system.l2bus.snoop_fanout::1                      418      1.41%    100.00% # Request fanout histogram
system.l2bus.snoop_fanout::2                        0      0.00%    100.00% # Request fanout histogram
system.l2bus.snoop_fanout::overflows                0      0.00%    100.00% # Request fanout histogram
system.l2bus.snoop_fanout::min_value                0                       # Request fanout histogram
system.l2bus.snoop_fanout::max_value                1                       # Request fanout histogram
system.l2bus.snoop_fanout::total                29741                       # Request fanout histogram
system.l2bus.respLayer1.occupancy            20130399                       # Layer occupancy (ticks)
system.l2bus.respLayer1.utilization               1.9                       # Layer utilization (%)
system.l2bus.reqLayer0.occupancy             18583266                       # Layer occupancy (ticks)
system.l2bus.reqLayer0.utilization                1.7                       # Layer utilization (%)
system.l2bus.respLayer0.occupancy             3124398                       # Layer occupancy (ticks)
system.l2bus.respLayer0.utilization               0.3                       # Layer utilization (%)
system.clk_domain.clock                           400                       # Clock period in ticks
system.clk_domain.voltage_domain.voltage            1                       # Voltage in Volts
system.cpu.pwrStateResidencyTicks::ON      1082216400                       # Cumulative time (in ticks) in various power states
system.cpu.icache.pwrStateResidencyTicks::UNDEFINED   1082216400                       # Cumulative time (in ticks) in various power states
system.cpu.icache.demand_hits::.cpu.inst       236592                       # number of demand (read+write) hits
system.cpu.icache.demand_hits::total           236592                       # number of demand (read+write) hits
system.cpu.icache.overall_hits::.cpu.inst       236592                       # number of overall hits
system.cpu.icache.overall_hits::total          236592                       # number of overall hits
system.cpu.icache.demand_misses::.cpu.inst         3296                       # number of demand (read+write) misses
system.cpu.icache.demand_misses::total           3296                       # number of demand (read+write) misses
system.cpu.icache.overall_misses::.cpu.inst         3296                       # number of overall misses
system.cpu.icache.overall_misses::total          3296                       # number of overall misses
system.cpu.icache.demand_miss_latency::.cpu.inst    167587200                       # number of demand (read+write) miss cycles
system.cpu.icache.demand_miss_latency::total    167587200                       # number of demand (read+write) miss cycles
system.cpu.icache.overall_miss_latency::.cpu.inst    167587200                       # number of overall miss cycles
system.cpu.icache.overall_miss_latency::total    167587200                       # number of overall miss cycles
system.cpu.icache.demand_accesses::.cpu.inst       239888                       # number of demand (read+write) accesses
system.cpu.icache.demand_accesses::total       239888                       # number of demand (read+write) accesses
system.cpu.icache.overall_accesses::.cpu.inst       239888                       # number of overall (read+write) accesses
system.cpu.icache.overall_accesses::total       239888                       # number of overall (read+write) accesses
system.cpu.icache.demand_miss_rate::.cpu.inst     0.013740                       # miss rate for demand accesses
system.cpu.icache.demand_miss_rate::total     0.013740                       # miss rate for demand accesses
system.cpu.icache.overall_miss_rate::.cpu.inst     0.013740                       # miss rate for overall accesses
system.cpu.icache.overall_miss_rate::total     0.013740                       # miss rate for overall accesses
system.cpu.icache.demand_avg_miss_latency::.cpu.inst 50845.631068                       # average overall miss latency
system.cpu.icache.demand_avg_miss_latency::total 50845.631068                       # average overall miss latency
system.cpu.icache.overall_avg_miss_latency::.cpu.inst 50845.631068                       # average overall miss latency
system.cpu.icache.overall_avg_miss_latency::total 50845.631068                       # average overall miss latency
system.cpu.icache.blocked_cycles::no_mshrs           39                       # number of cycles access was blocked
system.cpu.icache.blocked_cycles::no_targets            0                       # number of cycles access was blocked
system.cpu.icache.blocked::no_mshrs                 2                       # number of cycles access was blocked
system.cpu.icache.blocked::no_targets               0                       # number of cycles access was blocked
system.cpu.icache.avg_blocked_cycles::no_mshrs    19.500000                       # average number of cycles each access was blocked
system.cpu.icache.avg_blocked_cycles::no_targets          nan                       # average number of cycles each access was blocked
system.cpu.icache.demand_mshr_hits::.cpu.inst          693                       # number of demand (read+write) MSHR hits
system.cpu.icache.demand_mshr_hits::total          693                       # number of demand (read+write) MSHR hits
system.cpu.icache.overall_mshr_hits::.cpu.inst          693                       # number of overall MSHR hits
system.cpu.icache.overall_mshr_hits::total          693                       # number of overall MSHR hits
system.cpu.icache.demand_mshr_misses::.cpu.inst         2603                       # number of demand (read+write) MSHR misses
system.cpu.icache.demand_mshr_misses::total         2603                       # number of demand (read+write) MSHR misses
system.cpu.icache.overall_mshr_misses::.cpu.inst         2603                       # number of overall MSHR misses
system.cpu.icache.overall_mshr_misses::total         2603                       # number of overall MSHR misses
system.cpu.icache.demand_mshr_miss_latency::.cpu.inst    132618400                       # number of demand (read+write) MSHR miss cycles
system.cpu.icache.demand_mshr_miss_latency::total    132618400                       # number of demand (read+write) MSHR miss cycles
system.cpu.icache.overall_mshr_miss_latency::.cpu.inst    132618400                       # number of overall MSHR miss cycles
system.cpu.icache.overall_mshr_miss_latency::total    132618400                       # number of overall MSHR miss cycles
system.cpu.icache.demand_mshr_miss_rate::.cpu.inst     0.010851                       # mshr miss rate for demand accesses
system.cpu.icache.demand_mshr_miss_rate::total     0.010851                       # mshr miss rate for demand accesses
system.cpu.icache.overall_mshr_miss_rate::.cpu.inst     0.010851                       # mshr miss rate for overall accesses
system.cpu.icache.overall_mshr_miss_rate::total     0.010851                       # mshr miss rate for overall accesses
system.cpu.icache.demand_avg_mshr_miss_latency::.cpu.inst 50948.290434                       # average overall mshr miss latency
system.cpu.icache.demand_avg_mshr_miss_latency::total 50948.290434                       # average overall mshr miss latency
system.cpu.icache.overall_avg_mshr_miss_latency::.cpu.inst 50948.290434                       # average overall mshr miss latency
system.cpu.icache.overall_avg_mshr_miss_latency::total 50948.290434                       # average overall mshr miss latency
system.cpu.icache.replacements                   2347                       # number of replacements
system.cpu.icache.ReadReq_hits::.cpu.inst       236592                       # number of ReadReq hits
system.cpu.icache.ReadReq_hits::total          236592                       # number of ReadReq hits
system.cpu.icache.ReadReq_misses::.cpu.inst         3296                       # number of ReadReq misses
system.cpu.icache.ReadReq_misses::total          3296                       # number of ReadReq misses
system.cpu.icache.ReadReq_miss_latency::.cpu.inst    167587200                       # number of ReadReq miss cycles
system.cpu.icache.ReadReq_miss_latency::total    167587200                       # number of ReadReq miss cycles
system.cpu.icache.ReadReq_accesses::.cpu.inst       239888                       # number of ReadReq accesses(hits+misses)
system.cpu.icache.ReadReq_accesses::total       239888                       # number of ReadReq accesses(hits+misses)
system.cpu.icache.ReadReq_miss_rate::.cpu.inst     0.013740                       # miss rate for ReadReq accesses
system.cpu.icache.ReadReq_miss_rate::total     0.013740                       # miss rate for ReadReq accesses
system.cpu.icache.ReadReq_avg_miss_latency::.cpu.inst 50845.631068                       # average ReadReq miss latency
system.cpu.icache.ReadReq_avg_miss_latency::total 50845.631068                       # average ReadReq miss latency
system.cpu.icache.ReadReq_mshr_hits::.cpu.inst          693                       # number of ReadReq MSHR hits
system.cpu.icache.ReadReq_mshr_hits::total          693                       # number of ReadReq MSHR hits
system.cpu.icache.ReadReq_mshr_misses::.cpu.inst         2603                       # number of ReadReq MSHR misses
system.cpu.icache.ReadReq_mshr_misses::total         2603                       # number of ReadReq MSHR misses
system.cpu.icache.ReadReq_mshr_miss_latency::.cpu.inst    132618400                       # number of ReadReq MSHR miss cycles
system.cpu.icache.ReadReq_mshr_miss_latency::total    132618400                       # number of ReadReq MSHR miss cycles
system.cpu.icache.ReadReq_mshr_miss_rate::.cpu.inst     0.010851                       # mshr miss rate for ReadReq accesses
system.cpu.icache.ReadReq_mshr_miss_rate::total     0.010851                       # mshr miss rate for ReadReq accesses
system.cpu.icache.ReadReq_avg_mshr_miss_latency::.cpu.inst 50948.290434                       # average ReadReq mshr miss latency
system.cpu.icache.ReadReq_avg_mshr_miss_latency::total 50948.290434                       # average ReadReq mshr miss latency
system.cpu.icache.prefetcher.pwrStateResidencyTicks::UNDEFINED   1082216400                       # Cumulative time (in ticks) in various power states
system.cpu.icache.tags.pwrStateResidencyTicks::UNDEFINED   1082216400                       # Cumulative time (in ticks) in various power states
system.cpu.icache.tags.tagsinuse           253.456306                       # Cycle average of tags in use
system.cpu.icache.tags.total_refs              207461                       # Total number of references to valid blocks.
system.cpu.icache.tags.sampled_refs              2347                       # Sample count of references to valid blocks.
system.cpu.icache.tags.avg_refs             88.394120                       # Average number of references to valid blocks.
system.cpu.icache.tags.warmup_cycle             66400                       # Cycle when the warmup percentage was hit.
system.cpu.icache.tags.occ_blocks::.cpu.inst   253.456306                       # Average occupied blocks per requestor
system.cpu.icache.tags.occ_percent::.cpu.inst     0.990064                       # Average percentage of cache occupancy
system.cpu.icache.tags.occ_percent::total     0.990064                       # Average percentage of cache occupancy
system.cpu.icache.tags.occ_task_id_blocks::1024          256                       # Occupied blocks per task id
system.cpu.icache.tags.age_task_id_blocks_1024::0           76                       # Occupied blocks per task id
system.cpu.icache.tags.age_task_id_blocks_1024::1          154                       # Occupied blocks per task id
system.cpu.icache.tags.age_task_id_blocks_1024::2           26                       # Occupied blocks per task id
system.cpu.icache.tags.occ_task_id_percent::1024            1                       # Percentage of cache occupancy per task id
system.cpu.icache.tags.tag_accesses            482379                       # Number of tag accesses
system.cpu.icache.tags.data_accesses           482379                       # Number of data accesses
system.cpu.dtb.walker.pwrStateResidencyTicks::UNDEFINED   1082216400                       # Cumulative time (in ticks) in various power states
system.cpu.interrupts.clk_domain.clock           6400                       # Clock period in ticks
system.cpu.itb.walker.pwrStateResidencyTicks::UNDEFINED   1082216400                       # Cumulative time (in ticks) in various power states
system.cpu.dcache.pwrStateResidencyTicks::UNDEFINED   1082216400                       # Cumulative time (in ticks) in various power states
system.cpu.dcache.demand_hits::.cpu.data       665133                       # number of demand (read+write) hits
system.cpu.dcache.demand_hits::total           665133                       # number of demand (read+write) hits
system.cpu.dcache.overall_hits::.cpu.data       665133                       # number of overall hits
system.cpu.dcache.overall_hits::total          665133                       # number of overall hits
system.cpu.dcache.demand_misses::.cpu.data        34757                       # number of demand (read+write) misses
system.cpu.dcache.demand_misses::total          34757                       # number of demand (read+write) misses
system.cpu.dcache.overall_misses::.cpu.data        34757                       # number of overall misses
system.cpu.dcache.overall_misses::total         34757                       # number of overall misses
system.cpu.dcache.demand_miss_latency::.cpu.data   1685935199                       # number of demand (read+write) miss cycles
system.cpu.dcache.demand_miss_latency::total   1685935199                       # number of demand (read+write) miss cycles
system.cpu.dcache.overall_miss_latency::.cpu.data   1685935199                       # number of overall miss cycles
system.cpu.dcache.overall_miss_latency::total   1685935199                       # number of overall miss cycles
system.cpu.dcache.demand_accesses::.cpu.data       699890                       # number of demand (read+write) accesses
system.cpu.dcache.demand_accesses::total       699890                       # number of demand (read+write) accesses
system.cpu.dcache.overall_accesses::.cpu.data       699890                       # number of overall (read+write) accesses
system.cpu.dcache.overall_accesses::total       699890                       # number of overall (read+write) accesses
system.cpu.dcache.demand_miss_rate::.cpu.data     0.049661                       # miss rate for demand accesses
system.cpu.dcache.demand_miss_rate::total     0.049661                       # miss rate for demand accesses
system.cpu.dcache.overall_miss_rate::.cpu.data     0.049661                       # miss rate for overall accesses
system.cpu.dcache.overall_miss_rate::total     0.049661                       # miss rate for overall accesses
system.cpu.dcache.demand_avg_miss_latency::.cpu.data 48506.349771                       # average overall miss latency
system.cpu.dcache.demand_avg_miss_latency::total 48506.349771                       # average overall miss latency
system.cpu.dcache.overall_avg_miss_latency::.cpu.data 48506.349771                       # average overall miss latency
system.cpu.dcache.overall_avg_miss_latency::total 48506.349771                       # average overall miss latency
system.cpu.dcache.blocked_cycles::no_mshrs        27537                       # number of cycles access was blocked
system.cpu.dcache.blocked_cycles::no_targets          138                       # number of cycles access was blocked
system.cpu.dcache.blocked::no_mshrs               745                       # number of cycles access was blocked
system.cpu.dcache.blocked::no_targets               1                       # number of cycles access was blocked
system.cpu.dcache.avg_blocked_cycles::no_mshrs    36.962416                       # average number of cycles each access was blocked
system.cpu.dcache.avg_blocked_cycles::no_targets          138                       # average number of cycles each access was blocked
system.cpu.dcache.unused_prefetches              1737                       # number of HardPF blocks evicted w/o reference
system.cpu.dcache.writebacks::.writebacks         2763                       # number of writebacks
system.cpu.dcache.writebacks::total              2763                       # number of writebacks
system.cpu.dcache.demand_mshr_hits::.cpu.data        22197                       # number of demand (read+write) MSHR hits
system.cpu.dcache.demand_mshr_hits::total        22197                       # number of demand (read+write) MSHR hits
system.cpu.dcache.overall_mshr_hits::.cpu.data        22197                       # number of overall MSHR hits
system.cpu.dcache.overall_mshr_hits::total        22197                       # number of overall MSHR hits
system.cpu.dcache.demand_mshr_misses::.cpu.data        12560                       # number of demand (read+write) MSHR misses
system.cpu.dcache.demand_mshr_misses::total        12560                       # number of demand (read+write) MSHR misses
system.cpu.dcache.overall_mshr_misses::.cpu.data        12560                       # number of overall MSHR misses
system.cpu.dcache.overall_mshr_misses::.cpu.dcache.prefetcher         4215                       # number of overall MSHR misses
system.cpu.dcache.overall_mshr_misses::total        16775                       # number of overall MSHR misses
system.cpu.dcache.demand_mshr_miss_latency::.cpu.data    575947199                       # number of demand (read+write) MSHR miss cycles
system.cpu.dcache.demand_mshr_miss_latency::total    575947199                       # number of demand (read+write) MSHR miss cycles
system.cpu.dcache.overall_mshr_miss_latency::.cpu.data    575947199                       # number of overall MSHR miss cycles
system.cpu.dcache.overall_mshr_miss_latency::.cpu.dcache.prefetcher    241308343                       # number of overall MSHR miss cycles
system.cpu.dcache.overall_mshr_miss_latency::total    817255542                       # number of overall MSHR miss cycles
system.cpu.dcache.demand_mshr_miss_rate::.cpu.data     0.017946                       # mshr miss rate for demand accesses
system.cpu.dcache.demand_mshr_miss_rate::total     0.017946                       # mshr miss rate for demand accesses
system.cpu.dcache.overall_mshr_miss_rate::.cpu.data     0.017946                       # mshr miss rate for overall accesses
system.cpu.dcache.overall_mshr_miss_rate::.cpu.dcache.prefetcher          inf                       # mshr miss rate for overall accesses
system.cpu.dcache.overall_mshr_miss_rate::total     0.023968                       # mshr miss rate for overall accesses
system.cpu.dcache.demand_avg_mshr_miss_latency::.cpu.data 45855.668710                       # average overall mshr miss latency
system.cpu.dcache.demand_avg_mshr_miss_latency::total 45855.668710                       # average overall mshr miss latency
system.cpu.dcache.overall_avg_mshr_miss_latency::.cpu.data 45855.668710                       # average overall mshr miss latency
system.cpu.dcache.overall_avg_mshr_miss_latency::.cpu.dcache.prefetcher 57249.903440                       # average overall mshr miss latency
system.cpu.dcache.overall_avg_mshr_miss_latency::total 48718.661222                       # average overall mshr miss latency
system.cpu.dcache.replacements                  15751                       # number of replacements
system.cpu.dcache.ReadReq_hits::.cpu.data       497846                       # number of ReadReq hits
system.cpu.dcache.ReadReq_hits::total          497846                       # number of ReadReq hits
system.cpu.dcache.ReadReq_misses::.cpu.data        32644                       # number of ReadReq misses
system.cpu.dcache.ReadReq_misses::total         32644                       # number of ReadReq misses
system.cpu.dcache.ReadReq_miss_latency::.cpu.data   1581380400                       # number of ReadReq miss cycles
system.cpu.dcache.ReadReq_miss_latency::total   1581380400                       # number of ReadReq miss cycles
system.cpu.dcache.ReadReq_accesses::.cpu.data       530490                       # number of ReadReq accesses(hits+misses)
system.cpu.dcache.ReadReq_accesses::total       530490                       # number of ReadReq accesses(hits+misses)
system.cpu.dcache.ReadReq_miss_rate::.cpu.data     0.061536                       # miss rate for ReadReq accesses
system.cpu.dcache.ReadReq_miss_rate::total     0.061536                       # miss rate for ReadReq accesses
system.cpu.dcache.ReadReq_avg_miss_latency::.cpu.data 48443.217743                       # average ReadReq miss latency
system.cpu.dcache.ReadReq_avg_miss_latency::total 48443.217743                       # average ReadReq miss latency
system.cpu.dcache.ReadReq_mshr_hits::.cpu.data        22162                       # number of ReadReq MSHR hits
system.cpu.dcache.ReadReq_mshr_hits::total        22162                       # number of ReadReq MSHR hits
system.cpu.dcache.ReadReq_mshr_misses::.cpu.data        10482                       # number of ReadReq MSHR misses
system.cpu.dcache.ReadReq_mshr_misses::total        10482                       # number of ReadReq MSHR misses
system.cpu.dcache.ReadReq_mshr_miss_latency::.cpu.data    474373600                       # number of ReadReq MSHR miss cycles
system.cpu.dcache.ReadReq_mshr_miss_latency::total    474373600                       # number of ReadReq MSHR miss cycles
system.cpu.dcache.ReadReq_mshr_miss_rate::.cpu.data     0.019759                       # mshr miss rate for ReadReq accesses
system.cpu.dcache.ReadReq_mshr_miss_rate::total     0.019759                       # mshr miss rate for ReadReq accesses
system.cpu.dcache.ReadReq_avg_mshr_miss_latency::.cpu.data 45256.019844                       # average ReadReq mshr miss latency
system.cpu.dcache.ReadReq_avg_mshr_miss_latency::total 45256.019844                       # average ReadReq mshr miss latency
system.cpu.dcache.WriteReq_hits::.cpu.data       167287                       # number of WriteReq hits
system.cpu.dcache.WriteReq_hits::total         167287                       # number of WriteReq hits
system.cpu.dcache.WriteReq_misses::.cpu.data         2113                       # number of WriteReq misses
system.cpu.dcache.WriteReq_misses::total         2113                       # number of WriteReq misses
system.cpu.dcache.WriteReq_miss_latency::.cpu.data    104554799                       # number of WriteReq miss cycles
system.cpu.dcache.WriteReq_miss_latency::total    104554799                       # number of WriteReq miss cycles
system.cpu.dcache.WriteReq_accesses::.cpu.data       169400                       # number of WriteReq accesses(hits+misses)
system.cpu.dcache.WriteReq_accesses::total       169400                       # number of WriteReq accesses(hits+misses)
system.cpu.dcache.WriteReq_miss_rate::.cpu.data     0.012473                       # miss rate for WriteReq accesses
system.cpu.dcache.WriteReq_miss_rate::total     0.012473                       # miss rate for WriteReq accesses
system.cpu.dcache.WriteReq_avg_miss_latency::.cpu.data 49481.684335                       # average WriteReq miss latency
system.cpu.dcache.WriteReq_avg_miss_latency::total 49481.684335                       # average WriteReq miss latency
system.cpu.dcache.WriteReq_mshr_hits::.cpu.data           35                       # number of WriteReq MSHR hits
system.cpu.dcache.WriteReq_mshr_hits::total           35                       # number of WriteReq MSHR hits
system.cpu.dcache.WriteReq_mshr_misses::.cpu.data         2078                       # number of WriteReq MSHR misses
system.cpu.dcache.WriteReq_mshr_misses::total         2078                       # number of WriteReq MSHR misses
system.cpu.dcache.WriteReq_mshr_miss_latency::.cpu.data    101573599                       # number of WriteReq MSHR miss cycles
system.cpu.dcache.WriteReq_mshr_miss_latency::total    101573599                       # number of WriteReq MSHR miss cycles
[...]
system.l2cache.overall_mshr_misses::.cpu.dcache.prefetcher           47                       # number of overall MSHR misses
system.l2cache.overall_mshr_misses::total          612                       # number of overall MSHR misses
system.l2cache.demand_mshr_miss_latency::.cpu.inst     22887200                       # number of demand (read+write) MSHR miss cycles
system.l2cache.demand_mshr_miss_latency::.cpu.data     10567600                       # number of demand (read+write) MSHR miss cycles
system.l2cache.demand_mshr_miss_latency::.cpu.dcache.prefetcher      2793554                       # number of demand (read+write) MSHR miss cycles
system.l2cache.demand_mshr_miss_latency::total     36248354                       # number of demand (read+write) MSHR miss cycles
system.l2cache.overall_mshr_miss_latency::.cpu.inst     22887200                       # number of overall MSHR miss cycles
system.l2cache.overall_mshr_miss_latency::.cpu.data     10567600                       # number of overall MSHR miss cycles
system.l2cache.overall_mshr_miss_latency::.cpu.dcache.prefetcher      2793554                       # number of overall MSHR miss cycles
system.l2cache.overall_mshr_miss_latency::total     36248354                       # number of overall MSHR miss cycles
system.l2cache.demand_mshr_miss_rate::.cpu.inst     0.246992                       # mshr miss rate for demand accesses
system.l2cache.demand_mshr_miss_rate::.cpu.data     0.522388                       # mshr miss rate for demand accesses
system.l2cache.demand_mshr_miss_rate::.cpu.dcache.prefetcher     0.839286                       # mshr miss rate for demand accesses
system.l2cache.demand_mshr_miss_rate::total     0.310660                       # mshr miss rate for demand accesses
system.l2cache.overall_mshr_miss_rate::.cpu.inst     0.246992                       # mshr miss rate for overall accesses
system.l2cache.overall_mshr_miss_rate::.cpu.data     0.522388                       # mshr miss rate for overall accesses
system.l2cache.overall_mshr_miss_rate::.cpu.dcache.prefetcher     0.839286                       # mshr miss rate for overall accesses
system.l2cache.overall_mshr_miss_rate::total     0.310660                       # mshr miss rate for overall accesses
system.l2cache.demand_avg_mshr_miss_latency::.cpu.inst 58685.128205                       # average overall mshr miss latency
system.l2cache.demand_avg_mshr_miss_latency::.cpu.data 60386.285714                       # average overall mshr miss latency
system.l2cache.demand_avg_mshr_miss_latency::.cpu.dcache.prefetcher 59437.319149                       # average overall mshr miss latency
system.l2cache.demand_avg_mshr_miss_latency::total 59229.336601                       # average overall mshr miss latency
system.l2cache.overall_avg_mshr_miss_latency::.cpu.inst 58685.128205                       # average overall mshr miss latency
system.l2cache.overall_avg_mshr_miss_latency::.cpu.data 60386.285714                       # average overall mshr miss latency
system.l2cache.overall_avg_mshr_miss_latency::.cpu.dcache.prefetcher 59437.319149                       # average overall mshr miss latency
system.l2cache.overall_avg_mshr_miss_latency::total 59229.336601                       # average overall mshr miss latency
system.l2cache.replacements                       618                       # number of replacements
system.l2cache.WritebackDirty_hits::.writebacks          104                       # number of WritebackDirty hits
system.l2cache.WritebackDirty_hits::total          104                       # number of WritebackDirty hits
system.l2cache.WritebackDirty_accesses::.writebacks          104                       # number of WritebackDirty accesses(hits+misses)
system.l2cache.WritebackDirty_accesses::total          104                       # number of WritebackDirty accesses(hits+misses)
system.l2cache.CleanEvict_mshr_misses::.writebacks           21                       # number of CleanEvict MSHR misses
system.l2cache.CleanEvict_mshr_misses::total           21                       # number of CleanEvict MSHR misses
system.l2cache.CleanEvict_mshr_miss_rate::.writebacks          inf                       # mshr miss rate for CleanEvict accesses
system.l2cache.CleanEvict_mshr_miss_rate::total          inf                       # mshr miss rate for CleanEvict accesses
system.l2cache.UpgradeReq_hits::.cpu.data            1                       # number of UpgradeReq hits
system.l2cache.UpgradeReq_hits::total               1                       # number of UpgradeReq hits
system.l2cache.UpgradeReq_accesses::.cpu.data            1                       # number of UpgradeReq accesses(hits+misses)
system.l2cache.UpgradeReq_accesses::total            1                       # number of UpgradeReq accesses(hits+misses)
system.l2cache.ReadExReq_hits::.cpu.data            8                       # number of ReadExReq hits
system.l2cache.ReadExReq_hits::total                8                       # number of ReadExReq hits
system.l2cache.ReadExReq_misses::.cpu.data           22                       # number of ReadExReq misses
system.l2cache.ReadExReq_misses::total             22                       # number of ReadExReq misses
system.l2cache.ReadExReq_miss_latency::.cpu.data      1645600                       # number of ReadExReq miss cycles
system.l2cache.ReadExReq_miss_latency::total      1645600                       # number of ReadExReq miss cycles
system.l2cache.ReadExReq_accesses::.cpu.data           30                       # number of ReadExReq accesses(hits+misses)
system.l2cache.ReadExReq_accesses::total           30                       # number of ReadExReq accesses(hits+misses)
system.l2cache.ReadExReq_miss_rate::.cpu.data     0.733333                       # miss rate for ReadExReq accesses
system.l2cache.ReadExReq_miss_rate::total     0.733333                       # miss rate for ReadExReq accesses
system.l2cache.ReadExReq_avg_miss_latency::.cpu.data        74800                       # average ReadExReq miss latency
system.l2cache.ReadExReq_avg_miss_latency::total        74800                       # average ReadExReq miss latency
system.l2cache.ReadExReq_mshr_misses::.cpu.data           22                       # number of ReadExReq MSHR misses
system.l2cache.ReadExReq_mshr_misses::total           22                       # number of ReadExReq MSHR misses
system.l2cache.ReadExReq_mshr_miss_latency::.cpu.data      1469600                       # number of ReadExReq MSHR miss cycles
system.l2cache.ReadExReq_mshr_miss_latency::total      1469600                       # number of ReadExReq MSHR miss cycles
system.l2cache.ReadExReq_mshr_miss_rate::.cpu.data     0.733333                       # mshr miss rate for ReadExReq accesses
system.l2cache.ReadExReq_mshr_miss_rate::total     0.733333                       # mshr miss rate for ReadExReq accesses
system.l2cache.ReadExReq_avg_mshr_miss_latency::.cpu.data        66800                       # average ReadExReq mshr miss latency
system.l2cache.ReadExReq_avg_mshr_miss_latency::total        66800                       # average ReadExReq mshr miss latency
system.l2cache.ReadSharedReq_hits::.cpu.inst         1189                       # number of ReadSharedReq hits
system.l2cache.ReadSharedReq_hits::.cpu.data          151                       # number of ReadSharedReq hits
system.l2cache.ReadSharedReq_hits::.cpu.dcache.prefetcher            9                       # number of ReadSharedReq hits
system.l2cache.ReadSharedReq_hits::total         1349                       # number of ReadSharedReq hits
system.l2cache.ReadSharedReq_misses::.cpu.inst          390                       # number of ReadSharedReq misses
system.l2cache.ReadSharedReq_misses::.cpu.data          154                       # number of ReadSharedReq misses
system.l2cache.ReadSharedReq_misses::.cpu.dcache.prefetcher           47                       # number of ReadSharedReq misses
system.l2cache.ReadSharedReq_misses::total          591                       # number of ReadSharedReq misses
system.l2cache.ReadSharedReq_miss_latency::.cpu.inst     25999200                       # number of ReadSharedReq miss cycles
system.l2cache.ReadSharedReq_miss_latency::.cpu.data     10378400                       # number of ReadSharedReq miss cycles
system.l2cache.ReadSharedReq_miss_latency::.cpu.dcache.prefetcher      3169554                       # number of ReadSharedReq miss cycles
system.l2cache.ReadSharedReq_miss_latency::total     39547154                       # number of ReadSharedReq miss cycles
system.l2cache.ReadSharedReq_accesses::.cpu.inst         1579                       # number of ReadSharedReq accesses(hits+misses)
system.l2cache.ReadSharedReq_accesses::.cpu.data          305                       # number of ReadSharedReq accesses(hits+misses)
system.l2cache.ReadSharedReq_accesses::.cpu.dcache.prefetcher           56                       # number of ReadSharedReq accesses(hits+misses)
system.l2cache.ReadSharedReq_accesses::total         1940                       # number of ReadSharedReq accesses(hits+misses)
system.l2cache.ReadSharedReq_miss_rate::.cpu.inst     0.246992                       # miss rate for ReadSharedReq accesses
system.l2cache.ReadSharedReq_miss_rate::.cpu.data     0.504918                       # miss rate for ReadSharedReq accesses
system.l2cache.ReadSharedReq_miss_rate::.cpu.dcache.prefetcher     0.839286                       # miss rate for ReadSharedReq accesses
system.l2cache.ReadSharedReq_miss_rate::total     0.304639                       # miss rate for ReadSharedReq accesses
system.l2cache.ReadSharedReq_avg_miss_latency::.cpu.inst 66664.615385                       # average ReadSharedReq miss latency
system.l2cache.ReadSharedReq_avg_miss_latency::.cpu.data 67392.207792                       # average ReadSharedReq miss latency
system.l2cache.ReadSharedReq_avg_miss_latency::.cpu.dcache.prefetcher 67437.319149                       # average ReadSharedReq miss latency
system.l2cache.ReadSharedReq_avg_miss_latency::total 66915.658206                       # average ReadSharedReq miss latency
system.l2cache.ReadSharedReq_mshr_hits::.cpu.data            1                       # number of ReadSharedReq MSHR hits
system.l2cache.ReadSharedReq_mshr_hits::total            1                       # number of ReadSharedReq MSHR hits
system.l2cache.ReadSharedReq_mshr_misses::.cpu.inst          390                       # number of ReadSharedReq MSHR misses
system.l2cache.ReadSharedReq_mshr_misses::.cpu.data          153                       # number of ReadSharedReq MSHR misses
system.l2cache.ReadSharedReq_mshr_misses::.cpu.dcache.prefetcher           47                       # number of ReadSharedReq MSHR misses
system.l2cache.ReadSharedReq_mshr_misses::total          590                       # number of ReadSharedReq MSHR misses
system.l2cache.ReadSharedReq_mshr_miss_latency::.cpu.inst     22887200                       # number of ReadSharedReq MSHR miss cycles
system.l2cache.ReadSharedReq_mshr_miss_latency::.cpu.data      9098000                       # number of ReadSharedReq MSHR miss cycles
system.l2cache.ReadSharedReq_mshr_miss_latency::.cpu.dcache.prefetcher      2793554                       # number of ReadSharedReq MSHR miss cycles
system.l2cache.ReadSharedReq_mshr_miss_latency::total     34778754                       # number of ReadSharedReq MSHR miss cycles
system.l2cache.ReadSharedReq_mshr_miss_rate::.cpu.inst     0.246992                       # mshr miss rate for ReadSharedReq accesses
system.l2cache.ReadSharedReq_mshr_miss_rate::.cpu.data     0.501639                       # mshr miss rate for ReadSharedReq accesses
system.l2cache.ReadSharedReq_mshr_miss_rate::.cpu.dcache.prefetcher     0.839286                       # mshr miss rate for ReadSharedReq accesses
system.l2cache.ReadSharedReq_mshr_miss_rate::total     0.304124                       # mshr miss rate for ReadSharedReq accesses
system.l2cache.ReadSharedReq_avg_mshr_miss_latency::.cpu.inst 58685.128205                       # average ReadSharedReq mshr miss latency
system.l2cache.ReadSharedReq_avg_mshr_miss_latency::.cpu.data 59464.052288                       # average ReadSharedReq mshr miss latency
system.l2cache.ReadSharedReq_avg_mshr_miss_latency::.cpu.dcache.prefetcher 59437.319149                       # average ReadSharedReq mshr miss latency
system.l2cache.ReadSharedReq_avg_mshr_miss_latency::total 58947.040678                       # average ReadSharedReq mshr miss latency
system.l2cache.prefetcher.pwrStateResidencyTicks::UNDEFINED     90332000                       # Cumulative time (in ticks) in various power states
system.l2cache.tags.pwrStateResidencyTicks::UNDEFINED     90332000                       # Cumulative time (in ticks) in various power states
system.l2cache.tags.tagsinuse                    4096                       # Cycle average of tags in use
system.l2cache.tags.total_refs                  16409                       # Total number of references to valid blocks.
system.l2cache.tags.sampled_refs                 4714                       # Sample count of references to valid blocks.
system.l2cache.tags.avg_refs                 3.480908                       # Average number of references to valid blocks.
system.l2cache.tags.warmup_cycle                    0                       # Cycle when the warmup percentage was hit.
system.l2cache.tags.occ_blocks::.writebacks    34.361799                       # Average occupied blocks per requestor
system.l2cache.tags.occ_blocks::.cpu.inst  1115.124449                       # Average occupied blocks per requestor
system.l2cache.tags.occ_blocks::.cpu.data  1852.213217                       # Average occupied blocks per requestor
system.l2cache.tags.occ_blocks::.cpu.dcache.prefetcher   940.046521                       # Average occupied blocks per requestor
system.l2cache.tags.occ_blocks::.l2cache.prefetcher   154.254014                       # Average occupied blocks per requestor
system.l2cache.tags.occ_percent::.writebacks     0.008389                       # Average percentage of cache occupancy
system.l2cache.tags.occ_percent::.cpu.inst     0.272247                       # Average percentage of cache occupancy
system.l2cache.tags.occ_percent::.cpu.data     0.452200                       # Average percentage of cache occupancy
system.l2cache.tags.occ_percent::.cpu.dcache.prefetcher     0.229504                       # Average percentage of cache occupancy
system.l2cache.tags.occ_percent::.l2cache.prefetcher     0.037660                       # Average percentage of cache occupancy
system.l2cache.tags.occ_percent::total       1.000000                       # Average percentage of cache occupancy
system.l2cache.tags.occ_task_id_blocks::1022         1020                       # Occupied blocks per task id
system.l2cache.tags.occ_task_id_blocks::1024         3076                       # Occupied blocks per task id
system.l2cache.tags.age_task_id_blocks_1022::0            6                       # Occupied blocks per task id
system.l2cache.tags.age_task_id_blocks_1022::1           43                       # Occupied blocks per task id
system.l2cache.tags.age_task_id_blocks_1022::2          966                       # Occupied blocks per task id
system.l2cache.tags.age_task_id_blocks_1022::3            5                       # Occupied blocks per task id
system.l2cache.tags.age_task_id_blocks_1024::0          166                       # Occupied blocks per task id
system.l2cache.tags.age_task_id_blocks_1024::1          460                       # Occupied blocks per task id
system.l2cache.tags.age_task_id_blocks_1024::2         2371                       # Occupied blocks per task id
system.l2cache.tags.age_task_id_blocks_1024::3           79                       # Occupied blocks per task id
system.l2cache.tags.occ_task_id_percent::1022     0.249023                       # Percentage of cache occupancy per task id
system.l2cache.tags.occ_task_id_percent::1024     0.750977                       # Percentage of cache occupancy per task id
system.l2cache.tags.tag_accesses                32082                       # Number of tag accesses
system.l2cache.tags.data_accesses               32082                       # Number of data accesses
system.mem_ctrl.pwrStateResidencyTicks::UNDEFINED     90332000                       # Cumulative time (in ticks) in various power states
system.mem_ctrl.bytes_read::.cpu.inst           24896                       # Number of bytes read from this memory
system.mem_ctrl.bytes_read::.cpu.data           11200                       # Number of bytes read from this memory
system.mem_ctrl.bytes_read::.cpu.dcache.prefetcher         3008                       # Number of bytes read from this memory
system.mem_ctrl.bytes_read::total               39104                       # Number of bytes read from this memory
system.mem_ctrl.bytes_inst_read::.cpu.inst        24896                       # Number of instructions bytes read from this memory
system.mem_ctrl.bytes_inst_read::total          24896                       # Number of instructions bytes read from this memory
system.mem_ctrl.bytes_written::.writebacks         2240                       # Number of bytes written to this memory
system.mem_ctrl.bytes_written::total             2240                       # Number of bytes written to this memory
system.mem_ctrl.num_reads::.cpu.inst              389                       # Number of read requests responded to by this memory
system.mem_ctrl.num_reads::.cpu.data              175                       # Number of read requests responded to by this memory
system.mem_ctrl.num_reads::.cpu.dcache.prefetcher           47                       # Number of read requests responded to by this memory
system.mem_ctrl.num_reads::total                  611                       # Number of read requests responded to by this memory
system.mem_ctrl.num_writes::.writebacks            35                       # Number of write requests responded to by this memory
system.mem_ctrl.num_writes::total                  35                       # Number of write requests responded to by this memory
system.mem_ctrl.bw_read::.cpu.inst          275605544                       # Total read bandwidth from this memory (bytes/s)
system.mem_ctrl.bw_read::.cpu.data          123987070                       # Total read bandwidth from this memory (bytes/s)
system.mem_ctrl.bw_read::.cpu.dcache.prefetcher     33299384                       # Total read bandwidth from this memory (bytes/s)
system.mem_ctrl.bw_read::total              432891998                       # Total read bandwidth from this memory (bytes/s)
system.mem_ctrl.bw_inst_read::.cpu.inst     275605544                       # Instruction read bandwidth from this memory (bytes/s)
system.mem_ctrl.bw_inst_read::total         275605544                       # Instruction read bandwidth from this memory (bytes/s)
system.mem_ctrl.bw_write::.writebacks        24797414                       # Write bandwidth from this memory (bytes/s)
system.mem_ctrl.bw_write::total              24797414                       # Write bandwidth from this memory (bytes/s)
system.mem_ctrl.bw_total::.writebacks        24797414                       # Total bandwidth to/from this memory (bytes/s)
system.mem_ctrl.bw_total::.cpu.inst         275605544                       # Total bandwidth to/from this memory (bytes/s)
system.mem_ctrl.bw_total::.cpu.data         123987070                       # Total bandwidth to/from this memory (bytes/s)
system.mem_ctrl.bw_total::.cpu.dcache.prefetcher     33299384                       # Total bandwidth to/from this memory (bytes/s)
system.mem_ctrl.bw_total::total             457689412                       # Total bandwidth to/from this memory (bytes/s)

---------- End Simulation Statistics   ----------
