
---------- Begin Simulation Statistics ----------
final_tick                                 1106376800                       # Number of ticks from beginning of simulation (restored from checkpoints and never reset)
host_inst_rate                                 178461                       # Simulator instruction rate (inst/s)
host_mem_usage                                4406860                       # Number of bytes of host memory used
host_op_rate                                   311851                       # Simulator op (including micro ops) rate (op/s)
host_seconds                                    11.80                       # Real time elapsed on the host
host_tick_rate                               93771126                       # Simulator tick rate (ticks/s)
sim_freq                                 1000000000000                       # Frequency of simulated ticks
sim_insts                                     2105592                       # Number of instructions simulated
sim_ops                                       3679431                       # Number of ops (including micro ops) simulated
sim_seconds                                  0.001106                       # Number of seconds simulated
sim_ticks                                  1106376800                       # Number of ticks simulated
system.cpu.branchPred.BTBCorrect                    0                       # Number of correct BTB predictions (this stat may not work properly.
system.cpu.branchPred.BTBHitPct              0.000000                       # BTB Hit Percentage
system.cpu.branchPred.BTBHits                       0                       # Number of BTB hits
system.cpu.branchPred.BTBLookups               442993                       # Number of BTB lookups
system.cpu.branchPred.RASInCorrect                 10                       # Number of incorrect RAS predictions.
system.cpu.branchPred.condIncorrect             24352                       # Number of conditional branches incorrect
system.cpu.branchPred.condPredicted            468334                       # Number of conditional branches predicted
system.cpu.branchPred.indirectHits             241548                       # Number of indirect target hits.
system.cpu.branchPred.indirectLookups          442993                       # Number of indirect predictor lookups.
system.cpu.branchPred.indirectMisses           201445                       # Number of indirect misses.
system.cpu.branchPred.lookups                  495653                       # Number of BP lookups
system.cpu.branchPred.usedRAS                   11937                       # Number of times the RAS was used to get a target.
system.cpu.branchPredindirectMispredicted        12255                       # Number of mispredicted indirect branches.
system.cpu.cc_regfile_reads                   2412460                       # number of cc regfile reads
system.cpu.cc_regfile_writes                  1954406                       # number of cc regfile writes
system.cpu.commit.amos                              0                       # Number of atomic instructions committed
system.cpu.commit.branchMispredicts             24466                       # The number of times a branch was mispredicted
system.cpu.commit.branches                     352765                       # Number of branches committed
system.cpu.commit.bw_lim_events                612260                       # number cycles where commit BW limit reached
system.cpu.commit.commitNonSpecStalls             760                       # The number of times commit has been forced to stall to communicate backwards
system.cpu.commit.commitSquashedInsts          880545                       # The number of squashed insts skipped by commit
system.cpu.commit.committedInsts              2105592                       # Number of instructions committed
system.cpu.commit.committedOps                3679431                       # Number of ops (including micro ops) committed
system.cpu.commit.committed_per_cycle::samples      2361642                       # Number of insts commited each cycle
system.cpu.commit.committed_per_cycle::mean     1.557997                       # Number of insts commited each cycle
system.cpu.commit.committed_per_cycle::stdev     1.726513                       # Number of insts commited each cycle
system.cpu.commit.committed_per_cycle::underflows            0      0.00%      0.00% # Number of insts commited each cycle
system.cpu.commit.committed_per_cycle::0      1159314     49.09%     49.09% # Number of insts commited each cycle
system.cpu.commit.committed_per_cycle::1       182262      7.72%     56.81% # Number of insts commited each cycle
system.cpu.commit.committed_per_cycle::2       175289      7.42%     64.23% # Number of insts commited each cycle
system.cpu.commit.committed_per_cycle::3       232517      9.85%     74.07% # Number of insts commited each cycle
system.cpu.commit.committed_per_cycle::4       612260     25.93%    100.00% # Number of insts commited each cycle
system.cpu.commit.committed_per_cycle::overflows            0      0.00%    100.00% # Number of insts commited each cycle
system.cpu.commit.committed_per_cycle::min_value            0                       # Number of insts commited each cycle
system.cpu.commit.committed_per_cycle::max_value            4                       # Number of insts commited each cycle
system.cpu.commit.committed_per_cycle::total      2361642                       # Number of insts commited each cycle
system.cpu.commit.fp_insts                      80857                       # Number of committed floating point instructions.
system.cpu.commit.function_calls                10087                       # Number of function calls committed.
system.cpu.commit.int_insts                   3618824                       # Number of committed integer instructions.
system.cpu.commit.loads                        503222                       # Number of loads committed
system.cpu.commit.membars                           1                       # Number of memory barriers committed
system.cpu.commit.op_class_0::No_OpClass        21079      0.57%      0.57% # Class of committed instruction
system.cpu.commit.op_class_0::IntAlu          2887954     78.49%     79.06% # Class of committed instruction
system.cpu.commit.op_class_0::IntMult            1564      0.04%     79.10% # Class of committed instruction
system.cpu.commit.op_class_0::IntDiv            38160      1.04%     80.14% # Class of committed instruction
system.cpu.commit.op_class_0::FloatAdd           3156      0.09%     80.23% # Class of committed instruction
system.cpu.commit.op_class_0::FloatCmp              0      0.00%     80.23% # Class of committed instruction
system.cpu.commit.op_class_0::FloatCvt           1248      0.03%     80.26% # Class of committed instruction
system.cpu.commit.op_class_0::FloatMult             0      0.00%     80.26% # Class of committed instruction
system.cpu.commit.op_class_0::FloatMultAcc            0      0.00%     80.26% # Class of committed instruction
system.cpu.commit.op_class_0::FloatDiv              0      0.00%     80.26% # Class of committed instruction
system.cpu.commit.op_class_0::FloatMisc             0      0.00%     80.26% # Class of committed instruction
system.cpu.commit.op_class_0::FloatSqrt             0      0.00%     80.26% # Class of committed instruction
system.cpu.commit.op_class_0::SimdAdd            6274      0.17%     80.43% # Class of committed instruction
system.cpu.commit.op_class_0::SimdAddAcc            0      0.00%     80.43% # Class of committed instruction
system.cpu.commit.op_class_0::SimdAlu           12369      0.34%     80.77% # Class of committed instruction
system.cpu.commit.op_class_0::SimdCmp               0      0.00%     80.77% # Class of committed instruction
system.cpu.commit.op_class_0::SimdCvt           13286      0.36%     81.13% # Class of committed instruction
system.cpu.commit.op_class_0::SimdMisc           8967      0.24%     81.37% # Class of committed instruction
system.cpu.commit.op_class_0::SimdMult              0      0.00%     81.37% # Class of committed instruction
system.cpu.commit.op_class_0::SimdMultAcc            0      0.00%     81.37% # Class of committed instruction
system.cpu.commit.op_class_0::SimdShift          1242      0.03%     81.41% # Class of committed instruction
system.cpu.commit.op_class_0::SimdShiftAcc            0      0.00%     81.41% # Class of committed instruction
system.cpu.commit.op_class_0::SimdDiv               0      0.00%     81.41% # Class of committed instruction
system.cpu.commit.op_class_0::SimdSqrt              0      0.00%     81.41% # Class of committed instruction
system.cpu.commit.op_class_0::SimdFloatAdd            0      0.00%     81.41% # Class of committed instruction
system.cpu.commit.op_class_0::SimdFloatAlu            0      0.00%     81.41% # Class of committed instruction
system.cpu.commit.op_class_0::SimdFloatCmp            0      0.00%     81.41% # Class of committed instruction
system.cpu.commit.op_class_0::SimdFloatCvt            0      0.00%     81.41% # Class of committed instruction
system.cpu.commit.op_class_0::SimdFloatDiv            0      0.00%     81.41% # Class of committed instruction
system.cpu.commit.op_class_0::SimdFloatMisc            0      0.00%     81.41% # Class of committed instruction
system.cpu.commit.op_class_0::SimdFloatMult            0      0.00%     81.41% # Class of committed instruction
system.cpu.commit.op_class_0::SimdFloatMultAcc            0      0.00%     81.41% # Class of committed instruction
system.cpu.commit.op_class_0::SimdFloatSqrt            0      0.00%     81.41% # Class of committed instruction
system.cpu.commit.op_class_0::SimdReduceAdd            0      0.00%     81.41% # Class of committed instruction
system.cpu.commit.op_class_0::SimdReduceAlu            0      0.00%     81.41% # Class of committed instruction
system.cpu.commit.op_class_0::SimdReduceCmp            0      0.00%     81.41% # Class of committed instruction
system.cpu.commit.op_class_0::SimdFloatReduceAdd            0      0.00%     81.41% # Class of committed instruction
system.cpu.commit.op_class_0::SimdFloatReduceCmp            0      0.00%     81.41% # Class of committed instruction
system.cpu.commit.op_class_0::SimdAes               0      0.00%     81.41% # Class of committed instruction
system.cpu.commit.op_class_0::SimdAesMix            0      0.00%     81.41% # Class of committed instruction
system.cpu.commit.op_class_0::SimdSha1Hash            0      0.00%     81.41% # Class of committed instruction
system.cpu.commit.op_class_0::SimdSha1Hash2            0      0.00%     81.41% # Class of committed instruction
system.cpu.commit.op_class_0::SimdSha256Hash            0      0.00%     81.41% # Class of committed instruction
system.cpu.commit.op_class_0::SimdSha256Hash2            0      0.00%     81.41% # Class of committed instruction
system.cpu.commit.op_class_0::SimdShaSigma2            0      0.00%     81.41% # Class of committed instruction
system.cpu.commit.op_class_0::SimdShaSigma3            0      0.00%     81.41% # Class of committed instruction
system.cpu.commit.op_class_0::SimdPredAlu            0      0.00%     81.41% # Class of committed instruction
system.cpu.commit.op_class_0::MemRead          483060     13.13%     94.54% # Class of committed instruction
system.cpu.commit.op_class_0::MemWrite         168419      4.58%     99.11% # Class of committed instruction
system.cpu.commit.op_class_0::FloatMemRead        20162      0.55%     99.66% # Class of committed instruction
system.cpu.commit.op_class_0::FloatMemWrite        12491      0.34%    100.00% # Class of committed instruction
system.cpu.commit.op_class_0::IprAccess             0      0.00%    100.00% # Class of committed instruction
system.cpu.commit.op_class_0::InstPrefetch            0      0.00%    100.00% # Class of committed instruction
system.cpu.commit.op_class_0::total           3679431                       # Class of committed instruction
system.cpu.commit.refs                         684132                       # Number of memory references committed
system.cpu.commit.swp_count                         0                       # Number of s/w prefetches committed
system.cpu.commit.vec_insts                         0                       # Number of committed Vector instructions.
system.cpu.committedInsts                     2105592                       # Number of Instructions Simulated
system.cpu.committedOps                       3679431                       # Number of Ops (including micro ops) Simulated
system.cpu.cpi                               1.313618                       # CPI: Cycles Per Instruction
system.cpu.cpi_total                         1.313618                       # CPI: Total CPI of All Threads
system.cpu.dcache.prefetcher.num_hwpf_issued         8215                       # number of hwpf issued
system.cpu.dcache.prefetcher.pfBufferHit        34621                       # number of redundant prefetches already in prefetch queue
system.cpu.dcache.prefetcher.pfIdentified        50380                       # number of prefetch candidates identified
system.cpu.dcache.prefetcher.pfInCache              0                       # number of redundant prefetches already in cache/mshr dropped
system.cpu.dcache.prefetcher.pfRemovedFull            0                       # number of prefetches dropped due to prefetch queue size
system.cpu.dcache.prefetcher.pfSpanPage          4532                       # number of prefetches that crossed the page
system.cpu.decode.BlockedCycles               1023010                       # Number of cycles decode is blocked
system.cpu.decode.DecodedInsts                4776729                       # Number of instructions handled by decode
system.cpu.decode.IdleCycles                   302801                       # Number of cycles decode is idle
system.cpu.decode.RunCycles                   1161694                       # Number of cycles decode is running
system.cpu.decode.SquashCycles                  24526                       # Number of cycles decode is squashing
system.cpu.decode.UnblockCycles                 89392                       # Number of cycles decode is unblocking
system.cpu.dtb.rdAccesses                      585849                       # TLB accesses on read requests
system.cpu.dtb.rdMisses                          2003                       # TLB misses on read requests
system.cpu.dtb.wrAccesses                      200318                       # TLB accesses on write requests
system.cpu.dtb.wrMisses                           164                       # TLB misses on write requests
system.cpu.fetch.Branches                      495653                       # Number of branches that fetch encountered
system.cpu.fetch.CacheLines                    244008                       # Number of cache lines fetched
system.cpu.fetch.Cycles                       2240865                       # Number of cycles fetch has run and was not squashing or blocked
system.cpu.fetch.IcacheSquashes                  4650                       # Number of outstanding Icache misses that were squashed
system.cpu.fetch.Insts                        2870386                       # Number of instructions fetch has processed
system.cpu.fetch.MiscStallCycles                  157                       # Number of cycles fetch has spent waiting on interrupts, or bad addresses, or out of MSHRs
system.cpu.fetch.PendingQuiesceStallCycles            7                       # Number of stall cycles due to pending quiesce instructions
system.cpu.fetch.PendingTrapStallCycles           766                       # Number of stall cycles due to pending traps
system.cpu.fetch.SquashCycles                   49052                       # Number of cycles fetch has spent squashing
system.cpu.fetch.branchRate                  0.179199                       # Number of branch fetches per cycle
system.cpu.fetch.icacheStallCycles             335102                       # Number of cycles fetch is stalled on an Icache miss
system.cpu.fetch.predictedBranches             253485                       # Number of branches that fetch has predicted taken
system.cpu.fetch.rate                        1.037760                       # Number of inst fetches per cycle
system.cpu.fetch.rateDist::samples            2601423                       # Number of instructions fetched each cycle (Total)
system.cpu.fetch.rateDist::mean              1.942236                       # Number of instructions fetched each cycle (Total)
system.cpu.fetch.rateDist::stdev             1.930977                       # Number of instructions fetched each cycle (Total)
system.cpu.fetch.rateDist::underflows               0      0.00%      0.00% # Number of instructions fetched each cycle (Total)
system.cpu.fetch.rateDist::0                  1232489     47.38%     47.38% # Number of instructions fetched each cycle (Total)
system.cpu.fetch.rateDist::1                    75370      2.90%     50.27% # Number of instructions fetched each cycle (Total)
system.cpu.fetch.rateDist::2                    60045      2.31%     52.58% # Number of instructions fetched each cycle (Total)
system.cpu.fetch.rateDist::3                    76959      2.96%     55.54% # Number of instructions fetched each cycle (Total)
system.cpu.fetch.rateDist::4                  1156560     44.46%    100.00% # Number of instructions fetched each cycle (Total)
system.cpu.fetch.rateDist::overflows                0      0.00%    100.00% # Number of instructions fetched each cycle (Total)
system.cpu.fetch.rateDist::min_value                0                       # Number of instructions fetched each cycle (Total)
system.cpu.fetch.rateDist::max_value                4                       # Number of instructions fetched each cycle (Total)
system.cpu.fetch.rateDist::total              2601423                       # Number of instructions fetched each cycle (Total)
system.cpu.fp_regfile_reads                    132795                       # number of floating regfile reads
system.cpu.fp_regfile_writes                    72867                       # number of floating regfile writes
system.cpu.fuPool.fu_ticks_busy::IntALU(0)    220823600                       # Total ticks fu was busy
system.cpu.fuPool.fu_ticks_busy::IntALU(1)    220823600                       # Total ticks fu was busy
system.cpu.fuPool.fu_ticks_busy::IntALU(2)    220823200                       # Total ticks fu was busy
system.cpu.fuPool.fu_ticks_busy::IntALU(3)    220823200                       # Total ticks fu was busy
system.cpu.fuPool.fu_ticks_busy::IntALU(4)    220823200                       # Total ticks fu was busy
system.cpu.fuPool.fu_ticks_busy::IntALU(5)    220823200                       # Total ticks fu was busy
system.cpu.fuPool.fu_ticks_busy::IntMultDiv(0)      8774000                       # Total ticks fu was busy
system.cpu.fuPool.fu_ticks_busy::IntMultDiv(1)      8774000                       # Total ticks fu was busy
system.cpu.fuPool.fu_ticks_busy::FP_ALU(0)       602400                       # Total ticks fu was busy
system.cpu.fuPool.fu_ticks_busy::FP_ALU(1)       602000                       # Total ticks fu was busy
system.cpu.fuPool.fu_ticks_busy::FP_ALU(2)       602000                       # Total ticks fu was busy
system.cpu.fuPool.fu_ticks_busy::FP_ALU(3)       602000                       # Total ticks fu was busy
system.cpu.fuPool.fu_ticks_busy::FP_MultDiv(0)            0                       # Total ticks fu was busy
system.cpu.fuPool.fu_ticks_busy::FP_MultDiv(1)            0                       # Total ticks fu was busy
system.cpu.fuPool.fu_ticks_busy::SIMD_Unit(0)      4827200                       # Total ticks fu was busy
system.cpu.fuPool.fu_ticks_busy::SIMD_Unit(1)      5000000                       # Total ticks fu was busy
system.cpu.fuPool.fu_ticks_busy::SIMD_Unit(2)      5190000                       # Total ticks fu was busy
system.cpu.fuPool.fu_ticks_busy::SIMD_Unit(3)      5011600                       # Total ticks fu was busy
system.cpu.fuPool.fu_ticks_busy::PredALU(0)            0                       # Total ticks fu was busy
system.cpu.fuPool.fu_ticks_busy::RdWrPort(0)     80041600                       # Total ticks fu was busy
system.cpu.fuPool.fu_ticks_busy::RdWrPort(1)     80025600                       # Total ticks fu was busy
system.cpu.fuPool.fu_ticks_busy::RdWrPort(2)     80029200                       # Total ticks fu was busy
system.cpu.fuPool.fu_ticks_busy::RdWrPort(3)     80049600                       # Total ticks fu was busy
system.cpu.fuPool.fu_ticks_busy::IprPort(0)            0                       # Total ticks fu was busy
system.cpu.fuPool.fu_ticks_busy::total     1685071200                       # Total ticks fu was busy
system.cpu.icache.prefetcher.num_hwpf_issued            0                       # number of hwpf issued
system.cpu.icache.prefetcher.pfBufferHit            0                       # number of redundant prefetches already in prefetch queue
system.cpu.icache.prefetcher.pfIdentified            0                       # number of prefetch candidates identified
system.cpu.icache.prefetcher.pfInCache              0                       # number of redundant prefetches already in cache/mshr dropped
system.cpu.icache.prefetcher.pfRemovedFull            0                       # number of prefetches dropped due to prefetch queue size
system.cpu.icache.prefetcher.pfSpanPage             0                       # number of prefetches that crossed the page
system.cpu.idleCycles                          164520                       # Total number of cycles that the CPU has spent unscheduled due to idling
system.cpu.iew.branchMispredicts                28938                       # Number of branch mispredicts detected at execute
system.cpu.iew.exec_branches                   382344                       # Number of branches executed
system.cpu.iew.exec_nop                             0                       # number of nop insts executed
system.cpu.iew.exec_rate                     1.520403                       # Inst execution rate
system.cpu.iew.exec_refs                       787499                       # number of memory reference insts executed
system.cpu.iew.exec_stores                     200305                       # Number of stores executed
system.cpu.iew.exec_swp                             0                       # number of swp insts executed
system.cpu.iew.iewBlockCycles                  693124                       # Number of cycles IEW is blocking
system.cpu.iew.iewDispLoadInsts                617679                       # Number of dispatched load instructions
system.cpu.iew.iewDispNonSpecInsts                952                       # Number of dispatched non-speculative instructions
system.cpu.iew.iewDispSquashedInsts               567                       # Number of squashed instructions skipped by dispatch
system.cpu.iew.iewDispStoreInsts               210474                       # Number of dispatched store instructions
system.cpu.iew.iewDispatchedInsts             4559929                       # Number of instructions dispatched to IQ
system.cpu.iew.iewExecLoadInsts                587194                       # Number of load instructions executed
system.cpu.iew.iewExecSquashedInsts             34536                       # Number of squashed instructions skipped in execute
system.cpu.iew.iewExecutedInsts               4205347                       # Number of executed instructions
system.cpu.iew.iewIQFullEvents                   3426                       # Number of times the IQ has become full, causing a stall
system.cpu.iew.iewIdleCycles                        0                       # Number of cycles IEW is idle
system.cpu.iew.iewLSQFullEvents                  8120                       # Number of times the LSQ has become full, causing a stall
system.cpu.iew.iewSquashCycles                  24526                       # Number of cycles IEW is squashing
system.cpu.iew.iewUnblockCycles                 14431                       # Number of cycles IEW is unblocking
system.cpu.iew.lsq.thread0.blockedLoads             0                       # Number of blocked loads due to partial load-store forwarding
system.cpu.iew.lsq.thread0.cacheBlocked           621                       # Number of times an access to memory failed due to the cache being blocked
system.cpu.iew.lsq.thread0.forwLoads            41018                       # Number of loads that had data forwarded from stores
system.cpu.iew.lsq.thread0.ignoredResponses          236                       # Number of memory responses ignored because the instruction is squashed
system.cpu.iew.lsq.thread0.invAddrLoads             0                       # Number of loads ignored due to an invalid address
system.cpu.iew.lsq.thread0.invAddrSwpfs             0                       # Number of software prefetches ignored due to an invalid address
system.cpu.iew.lsq.thread0.memOrderViolation           72                       # Number of memory ordering violations
system.cpu.iew.lsq.thread0.rescheduledLoads            2                       # Number of loads that were rescheduled
system.cpu.iew.lsq.thread0.squashedLoads       114455                       # Number of loads squashed
system.cpu.iew.lsq.thread0.squashedStores        29563                       # Number of stores squashed
system.cpu.iew.memOrderViolationEvents             72                       # Number of memory order violations
system.cpu.iew.predictedNotTakenIncorrect        20692                       # Number of branches that were predicted not taken incorrectly
system.cpu.iew.predictedTakenIncorrect           8246                       # Number of branches that were predicted taken incorrectly
system.cpu.iew.wb_consumers                   5876168                       # num instructions consuming a value
system.cpu.iew.wb_count                       4183275                       # cumulative count of insts written-back
system.cpu.iew.wb_fanout                     0.567400                       # average fanout of values written-back
system.cpu.iew.wb_producers                   3334140                       # num instructions producing a value
system.cpu.iew.wb_rate                       1.512423                       # insts written-back per cycle
system.cpu.iew.wb_sent                        4190187                       # cumulative count of insts sent to commit
system.cpu.int_regfile_reads                  6512278                       # number of integer regfile reads
system.cpu.int_regfile_writes                 3605257                       # number of integer regfile writes
system.cpu.ipc                               0.761256                       # IPC: Instructions Per Cycle
system.cpu.ipc_total                         0.761256                       # IPC: Total IPC of All Threads
system.cpu.iq.FU_type_0::No_OpClass             27205      0.64%      0.64% # Type of FU issued
system.cpu.iq.FU_type_0::IntAlu               3312352     78.12%     78.77% # Type of FU issued
system.cpu.iq.FU_type_0::IntMult                 1598      0.04%     78.80% # Type of FU issued
system.cpu.iq.FU_type_0::IntDiv                 42272      1.00%     79.80% # Type of FU issued
system.cpu.iq.FU_type_0::FloatAdd                4733      0.11%     79.91% # Type of FU issued
system.cpu.iq.FU_type_0::FloatCmp                   0      0.00%     79.91% # Type of FU issued
system.cpu.iq.FU_type_0::FloatCvt                1288      0.03%     79.94% # Type of FU issued
system.cpu.iq.FU_type_0::FloatMult                  0      0.00%     79.94% # Type of FU issued
system.cpu.iq.FU_type_0::FloatMultAcc               0      0.00%     79.94% # Type of FU issued
system.cpu.iq.FU_type_0::FloatDiv                   0      0.00%     79.94% # Type of FU issued
system.cpu.iq.FU_type_0::FloatMisc                  0      0.00%     79.94% # Type of FU issued
system.cpu.iq.FU_type_0::FloatSqrt                  0      0.00%     79.94% # Type of FU issued
system.cpu.iq.FU_type_0::SimdAdd                 6937      0.16%     80.11% # Type of FU issued
system.cpu.iq.FU_type_0::SimdAddAcc                 0      0.00%     80.11% # Type of FU issued
system.cpu.iq.FU_type_0::SimdAlu                16113      0.38%     80.49% # Type of FU issued
system.cpu.iq.FU_type_0::SimdCmp                    0      0.00%     80.49% # Type of FU issued
system.cpu.iq.FU_type_0::SimdCvt                15158      0.36%     80.84% # Type of FU issued
system.cpu.iq.FU_type_0::SimdMisc                9561      0.23%     81.07% # Type of FU issued
system.cpu.iq.FU_type_0::SimdMult                   0      0.00%     81.07% # Type of FU issued
system.cpu.iq.FU_type_0::SimdMultAcc                0      0.00%     81.07% # Type of FU issued
system.cpu.iq.FU_type_0::SimdShift               2303      0.05%     81.12% # Type of FU issued
system.cpu.iq.FU_type_0::SimdShiftAcc               0      0.00%     81.12% # Type of FU issued
system.cpu.iq.FU_type_0::SimdDiv                    0      0.00%     81.12% # Type of FU issued
system.cpu.iq.FU_type_0::SimdSqrt                   0      0.00%     81.12% # Type of FU issued
system.cpu.iq.FU_type_0::SimdFloatAdd               0      0.00%     81.12% # Type of FU issued
system.cpu.iq.FU_type_0::SimdFloatAlu               0      0.00%     81.12% # Type of FU issued
system.cpu.iq.FU_type_0::SimdFloatCmp               0      0.00%     81.12% # Type of FU issued
system.cpu.iq.FU_type_0::SimdFloatCvt               0      0.00%     81.12% # Type of FU issued
system.cpu.iq.FU_type_0::SimdFloatDiv               0      0.00%     81.12% # Type of FU issued
system.cpu.iq.FU_type_0::SimdFloatMisc              0      0.00%     81.12% # Type of FU issued
system.cpu.iq.FU_type_0::SimdFloatMult              0      0.00%     81.12% # Type of FU issued
system.cpu.iq.FU_type_0::SimdFloatMultAcc            0      0.00%     81.12% # Type of FU issued
system.cpu.iq.FU_type_0::SimdFloatSqrt              0      0.00%     81.12% # Type of FU issued
system.cpu.iq.FU_type_0::SimdReduceAdd              0      0.00%     81.12% # Type of FU issued
system.cpu.iq.FU_type_0::SimdReduceAlu              0      0.00%     81.12% # Type of FU issued
system.cpu.iq.FU_type_0::SimdReduceCmp              0      0.00%     81.12% # Type of FU issued
system.cpu.iq.FU_type_0::SimdFloatReduceAdd            0      0.00%     81.12% # Type of FU issued
system.cpu.iq.FU_type_0::SimdFloatReduceCmp            0      0.00%     81.12% # Type of FU issued
system.cpu.iq.FU_type_0::SimdAes                    0      0.00%     81.12% # Type of FU issued
system.cpu.iq.FU_type_0::SimdAesMix                 0      0.00%     81.12% # Type of FU issued
system.cpu.iq.FU_type_0::SimdSha1Hash               0      0.00%     81.12% # Type of FU issued
system.cpu.iq.FU_type_0::SimdSha1Hash2              0      0.00%     81.12% # Type of FU issued
system.cpu.iq.FU_type_0::SimdSha256Hash             0      0.00%     81.12% # Type of FU issued
system.cpu.iq.FU_type_0::SimdSha256Hash2            0      0.00%     81.12% # Type of FU issued
system.cpu.iq.FU_type_0::SimdShaSigma2              0      0.00%     81.12% # Type of FU issued
system.cpu.iq.FU_type_0::SimdShaSigma3              0      0.00%     81.12% # Type of FU issued
system.cpu.iq.FU_type_0::SimdPredAlu                0      0.00%     81.12% # Type of FU issued
system.cpu.iq.FU_type_0::MemRead               571011     13.47%     94.59% # Type of FU issued
system.cpu.iq.FU_type_0::MemWrite              189118      4.46%     99.05% # Type of FU issued
system.cpu.iq.FU_type_0::FloatMemRead           26410      0.62%     99.67% # Type of FU issued
system.cpu.iq.FU_type_0::FloatMemWrite          13828      0.33%    100.00% # Type of FU issued
system.cpu.iq.FU_type_0::IprAccess                  0      0.00%    100.00% # Type of FU issued
system.cpu.iq.FU_type_0::InstPrefetch               0      0.00%    100.00% # Type of FU issued
system.cpu.iq.FU_type_0::total                4239887                       # Type of FU issued
system.cpu.iq.fp_alu_accesses                   98157                       # Number of floating point alu accesses
system.cpu.iq.fp_inst_queue_reads              197642                       # Number of floating instruction queue reads
system.cpu.iq.fp_inst_queue_wakeup_accesses        94603                       # Number of floating instruction queue wakeup accesses
system.cpu.iq.fp_inst_queue_writes             141755                       # Number of floating instruction queue writes
system.cpu.iq.fu_busy_cnt                           0                       # FU busy when requested
system.cpu.iq.fu_busy_rate                          0                       # FU busy rate (busy events/executed inst)
system.cpu.iq.fu_full::No_OpClass                   0                       # attempts to use FU when none available
system.cpu.iq.fu_full::IntAlu                       0                       # attempts to use FU when none available
system.cpu.iq.fu_full::IntMult                      0                       # attempts to use FU when none available
system.cpu.iq.fu_full::IntDiv                       0                       # attempts to use FU when none available
system.cpu.iq.fu_full::FloatAdd                     0                       # attempts to use FU when none available
system.cpu.iq.fu_full::FloatCmp                     0                       # attempts to use FU when none available
system.cpu.iq.fu_full::FloatCvt                     0                       # attempts to use FU when none available
system.cpu.iq.fu_full::FloatMult                    0                       # attempts to use FU when none available
system.cpu.iq.fu_full::FloatMultAcc                 0                       # attempts to use FU when none available
system.cpu.iq.fu_full::FloatDiv                     0                       # attempts to use FU when none available
system.cpu.iq.fu_full::FloatMisc                    0                       # attempts to use FU when none available
system.cpu.iq.fu_full::FloatSqrt                    0                       # attempts to use FU when none available
system.cpu.iq.fu_full::SimdAdd                      0                       # attempts to use FU when none available
system.cpu.iq.fu_full::SimdAddAcc                   0                       # attempts to use FU when none available
system.cpu.iq.fu_full::SimdAlu                      0                       # attempts to use FU when none available
system.cpu.iq.fu_full::SimdCmp                      0                       # attempts to use FU when none available
system.cpu.iq.fu_full::SimdCvt                      0                       # attempts to use FU when none available
system.cpu.iq.fu_full::SimdMisc                     0                       # attempts to use FU when none available
system.cpu.iq.fu_full::SimdMult                     0                       # attempts to use FU when none available
system.cpu.iq.fu_full::SimdMultAcc                  0                       # attempts to use FU when none available
system.cpu.iq.fu_full::SimdShift                    0                       # attempts to use FU when none available
system.cpu.iq.fu_full::SimdShiftAcc                 0                       # attempts to use FU when none available
system.cpu.iq.fu_full::SimdDiv                      0                       # attempts to use FU when none available
system.cpu.iq.fu_full::SimdSqrt                     0                       # attempts to use FU when none available
system.cpu.iq.fu_full::SimdFloatAdd                 0                       # attempts to use FU when none available
system.cpu.iq.fu_full::SimdFloatAlu                 0                       # attempts to use FU when none available
system.cpu.iq.fu_full::SimdFloatCmp                 0                       # attempts to use FU when none available
system.cpu.iq.fu_full::SimdFloatCvt                 0                       # attempts to use FU when none available
system.cpu.iq.fu_full::SimdFloatDiv                 0                       # attempts to use FU when none available
system.cpu.iq.fu_full::SimdFloatMisc                0                       # attempts to use FU when none available
system.cpu.iq.fu_full::SimdFloatMult                0                       # attempts to use FU when none available
system.cpu.iq.fu_full::SimdFloatMultAcc             0                       # attempts to use FU when none available
system.cpu.iq.fu_full::SimdFloatSqrt                0                       # attempts to use FU when none available
system.cpu.iq.fu_full::SimdReduceAdd                0                       # attempts to use FU when none available
system.cpu.iq.fu_full::SimdReduceAlu                0                       # attempts to use FU when none available
system.cpu.iq.fu_full::SimdReduceCmp                0                       # attempts to use FU when none available
system.cpu.iq.fu_full::SimdFloatReduceAdd            0                       # attempts to use FU when none available
system.cpu.iq.fu_full::SimdFloatReduceCmp            0                       # attempts to use FU when none available
system.cpu.iq.fu_full::SimdAes                      0                       # attempts to use FU when none available
system.cpu.iq.fu_full::SimdAesMix                   0                       # attempts to use FU when none available
system.cpu.iq.fu_full::SimdSha1Hash                 0                       # attempts to use FU when none available
system.cpu.iq.fu_full::SimdSha1Hash2                0                       # attempts to use FU when none available
system.cpu.iq.fu_full::SimdSha256Hash               0                       # attempts to use FU when none available
system.cpu.iq.fu_full::SimdSha256Hash2              0                       # attempts to use FU when none available
system.cpu.iq.fu_full::SimdShaSigma2                0                       # attempts to use FU when none available
system.cpu.iq.fu_full::SimdShaSigma3                0                       # attempts to use FU when none available
system.cpu.iq.fu_full::SimdPredAlu                  0                       # attempts to use FU when none available
system.cpu.iq.fu_full::MemRead                      0                       # attempts to use FU when none available
system.cpu.iq.fu_full::MemWrite                     0                       # attempts to use FU when none available
system.cpu.iq.fu_full::FloatMemRead                 0                       # attempts to use FU when none available
system.cpu.iq.fu_full::FloatMemWrite                0                       # attempts to use FU when none available
system.cpu.iq.fu_full::IprAccess                    0                       # attempts to use FU when none available
system.cpu.iq.fu_full::InstPrefetch                 0                       # attempts to use FU when none available
system.cpu.iq.int_alu_accesses                4114525                       # Number of integer alu accesses
system.cpu.iq.int_inst_queue_reads           10901486                       # Number of integer instruction queue reads
system.cpu.iq.int_inst_queue_wakeup_accesses      4088672                       # Number of integer instruction queue wakeup accesses
system.cpu.iq.int_inst_queue_writes           5298732                       # Number of integer instruction queue writes
system.cpu.iq.iqInstsAdded                    4558791                       # Number of instructions added to the IQ (excludes non-spec)
system.cpu.iq.iqInstsIssued                   4239887                       # Number of instructions issued
system.cpu.iq.iqNonSpecInstsAdded                1138                       # Number of non-speculative instructions added to the IQ
system.cpu.iq.iqSquashedInstsExamined          880487                       # Number of squashed instructions iterated over during squash; mainly for profiling
system.cpu.iq.iqSquashedInstsIssued             17935                       # Number of squashed instructions issued
system.cpu.iq.iqSquashedNonSpecRemoved            378                       # Number of squashed non-spec instructions that were removed
system.cpu.iq.iqSquashedOperandsExamined      1318571                       # Number of squashed operands that are examined and possibly removed from graph
system.cpu.iq.issued_per_cycle::samples       2601423                       # Number of insts issued each cycle
system.cpu.iq.issued_per_cycle::mean         1.629834                       # Number of insts issued each cycle
system.cpu.iq.issued_per_cycle::stdev        1.669864                       # Number of insts issued each cycle
system.cpu.iq.issued_per_cycle::underflows            0      0.00%      0.00% # Number of insts issued each cycle
system.cpu.iq.issued_per_cycle::0             1169423     44.95%     44.95% # Number of insts issued each cycle
system.cpu.iq.issued_per_cycle::1              176334      6.78%     51.73% # Number of insts issued each cycle
system.cpu.iq.issued_per_cycle::2              305511     11.74%     63.48% # Number of insts issued each cycle
system.cpu.iq.issued_per_cycle::3              348089     13.38%     76.86% # Number of insts issued each cycle
system.cpu.iq.issued_per_cycle::4              602066     23.14%    100.00% # Number of insts issued each cycle
system.cpu.iq.issued_per_cycle::overflows            0      0.00%    100.00% # Number of insts issued each cycle
system.cpu.iq.issued_per_cycle::min_value            0                       # Number of insts issued each cycle
system.cpu.iq.issued_per_cycle::max_value            4                       # Number of insts issued each cycle
system.cpu.iq.issued_per_cycle::total         2601423                       # Number of insts issued each cycle
system.cpu.iq.rate                           1.532890                       # Inst issue rate
system.cpu.iq.vec_alu_accesses                      0                       # Number of vector alu accesses
system.cpu.iq.vec_inst_queue_reads                  0                       # Number of vector instruction queue reads
system.cpu.iq.vec_inst_queue_wakeup_accesses            0                       # Number of vector instruction queue wakeup accesses
system.cpu.iq.vec_inst_queue_writes                 0                       # Number of vector instruction queue writes
system.cpu.itb.rdAccesses                           0                       # TLB accesses on read requests
system.cpu.itb.rdMisses                             0                       # TLB misses on read requests
system.cpu.itb.wrAccesses                      244139                       # TLB accesses on write requests
system.cpu.itb.wrMisses                           385                       # TLB misses on write requests
system.cpu.memDep0.conflictingLoads              8063                       # Number of conflicting loads.
system.cpu.memDep0.conflictingStores             2905                       # Number of conflicting stores.
system.cpu.memDep0.insertedLoads               617679                       # Number of loads inserted to the mem dependence unit.
system.cpu.memDep0.insertedStores              210474                       # Number of stores inserted to the mem dependence unit.
system.cpu.misc_regfile_reads                 1587496                       # number of misc regfile reads
system.cpu.misc_regfile_writes                    702                       # number of misc regfile writes
system.cpu.numCycles                          2765943                       # number of cpu cycles simulated
system.cpu.numWorkItemsCompleted                    0                       # number of work items this cpu completed
system.cpu.numWorkItemsStarted                      0                       # number of work items this cpu started
system.cpu.process.numSyscalls                     57                       # Number of system calls
system.cpu.rename.BlockCycles                  841089                       # Number of cycles rename is blocking
system.cpu.rename.CommittedMaps               5015311                       # Number of HB maps that are committed
system.cpu.rename.FullRegisterEvents               54                       # Number of times there has been no free registers
system.cpu.rename.IQFullEvents                  46989                       # Number of times rename has blocked due to IQ full
system.cpu.rename.IdleCycles                   353432                       # Number of cycles rename is idle
system.cpu.rename.LQFullEvents                  14123                       # Number of times rename has blocked due to LQ full
system.cpu.rename.ROBFullEvents                  4398                       # Number of times rename has blocked due to ROB full
system.cpu.rename.RenameLookups              12280962                       # Number of register rename lookups that rename has made
system.cpu.rename.RenamedInsts                4701594                       # Number of instructions processed by rename
system.cpu.rename.RenamedOperands             6405426                       # Number of destination operands rename has renamed
system.cpu.rename.RunCycles                   1191919                       # Number of cycles rename is running
system.cpu.rename.SQFullEvents                  71587                       # Number of times rename has blocked due to SQ full
system.cpu.rename.SquashCycles                  24526                       # Number of cycles rename is squashing
system.cpu.rename.UnblockCycles                170331                       # Number of cycles rename is unblocking
system.cpu.rename.UndoneMaps                  1390089                       # Number of HB maps that are undone due to squashing
system.cpu.rename.fp_rename_lookups            170200                       # Number of floating rename lookups
system.cpu.rename.int_rename_lookups          7460096                       # Number of integer rename lookups
system.cpu.rename.serializeStallCycles          20126                       # count of cycles rename stalled for serializing inst
system.cpu.rename.serializingInsts                894                       # count of serializing insts renamed
system.cpu.rename.skidInsts                    208549                       # count of insts added to the skid buffer
system.cpu.rename.tempSerializingInsts            942                       # count of temporary serializing insts renamed
system.cpu.rob.rob_reads                      6309358                       # The number of ROB reads
system.cpu.rob.rob_writes                     9360660                       # The number of ROB writes
system.cpu.timesIdled                            1639                       # Number of times that the entire CPU went into an idle state and unscheduled itself
system.l2bus.snoop_filter.hit_multi_requests           13                       # Number of requests hitting in the snoop filter with multiple (>1) holders of the requested data.
system.l2bus.snoop_filter.hit_multi_snoops            0                       # Number of snoops hitting in the snoop filter with multiple (>1) holders of the requested data.
system.l2bus.snoop_filter.hit_single_requests        18590                       # Number of requests hitting in the snoop filter with a single holder of the requested data.
system.l2bus.snoop_filter.hit_single_snoops          438                       # Number of snoops hitting in the snoop filter with a single holder of the requested data.
system.l2bus.snoop_filter.tot_requests          38460                       # Total number of requests made to the snoop filter.
system.l2bus.snoop_filter.tot_snoops              438                       # Total number of snoops made to the snoop filter.
system.l2cache.prefetcher.num_hwpf_issued          680                       # number of hwpf issued
system.l2cache.prefetcher.pfBufferHit               0                       # number of redundant prefetches already in prefetch queue
system.l2cache.prefetcher.pfIdentified            680                       # number of prefetch candidates identified
system.l2cache.prefetcher.pfInCache                 0                       # number of redundant prefetches already in cache/mshr dropped
system.l2cache.prefetcher.pfRemovedFull             0                       # number of prefetches dropped due to prefetch queue size
system.l2cache.prefetcher.pfSpanPage               96                       # number of prefetches that crossed the page
system.membus.snoop_filter.hit_multi_requests            0                       # Number of requests hitting in the snoop filter with multiple (>1) holders of the requested data.
system.membus.snoop_filter.hit_multi_snoops            0                       # Number of snoops hitting in the snoop filter with multiple (>1) holders of the requested data.
system.membus.snoop_filter.hit_single_requests         9475                       # Number of requests hitting in the snoop filter with a single holder of the requested data.
system.membus.snoop_filter.hit_single_snoops            0                       # Number of snoops hitting in the snoop filter with a single holder of the requested data.
system.membus.snoop_filter.tot_requests         23071                       # Total number of requests made to the snoop filter.
system.membus.snoop_filter.tot_snoops               0                       # Total number of snoops made to the snoop filter.
system.membus.pwrStateResidencyTicks::UNDEFINED   1106376800                       # Cumulative time (in ticks) in various power states
system.membus.trans_dist::ReadResp              12265                       # Transaction distribution
system.membus.trans_dist::WritebackDirty         1350                       # Transaction distribution
system.membus.trans_dist::CleanEvict             8125                       # Transaction distribution
system.membus.trans_dist::ReadExReq              1331                       # Transaction distribution
system.membus.trans_dist::ReadExResp             1331                       # Transaction distribution
system.membus.trans_dist::ReadSharedReq         12265                       # Transaction distribution
system.membus.pkt_count_system.l2cache.mem_side::system.mem_ctrl.port        36667                       # Packet count per connected master and slave (bytes)
system.membus.pkt_count_system.l2cache.mem_side::total        36667                       # Packet count per connected master and slave (bytes)
system.membus.pkt_count::total                  36667                       # Packet count per connected master and slave (bytes)
system.membus.pkt_size_system.l2cache.mem_side::system.mem_ctrl.port       956544                       # Cumulative packet size per connected master and slave (bytes)
system.membus.pkt_size_system.l2cache.mem_side::total       956544                       # Cumulative packet size per connected master and slave (bytes)
system.membus.pkt_size::total                  956544                       # Cumulative packet size per connected master and slave (bytes)
system.membus.snoops                                0                       # Total snoops (count)
system.membus.snoopTraffic                          0                       # Total snoop traffic (bytes)
system.membus.snoop_fanout::samples             13596                       # Request fanout histogram
system.membus.snoop_fanout::mean                    0                       # Request fanout histogram
system.membus.snoop_fanout::stdev                   0                       # Request fanout histogram
system.membus.snoop_fanout::underflows              0      0.00%      0.00% # Request fanout histogram
system.membus.snoop_fanout::0                   13596    100.00%    100.00% # Request fanout histogram
system.membus.snoop_fanout::1                       0      0.00%    100.00% # Request fanout histogram
system.membus.snoop_fanout::overflows               0      0.00%    100.00% # Request fanout histogram
system.membus.snoop_fanout::min_value               0                       # Request fanout histogram
system.membus.snoop_fanout::max_value               0                       # Request fanout histogram
system.membus.snoop_fanout::total               13596                       # Request fanout histogram
system.membus.reqLayer2.occupancy            11413399                       # Layer occupancy (ticks)
system.membus.reqLayer2.utilization               1.0                       # Layer utilization (%)
system.membus.respLayer0.occupancy           29515701                       # Layer occupancy (ticks)
system.membus.respLayer0.utilization              2.7                       # Layer utilization (%)
system.l2bus.pwrStateResidencyTicks::UNDEFINED   1106376800                       # Cumulative time (in ticks) in various power states
system.l2bus.trans_dist::ReadResp               17777                       # Transaction distribution
system.l2bus.trans_dist::WritebackDirty          4134                       # Transaction distribution
system.l2bus.trans_dist::CleanEvict             24017                       # Transaction distribution
system.l2bus.trans_dist::HardPFReq                962                       # Transaction distribution
system.l2bus.trans_dist::ReadExReq               2093                       # Transaction distribution
system.l2bus.trans_dist::ReadExResp              2093                       # Transaction distribution
system.l2bus.trans_dist::ReadSharedReq          17777                       # Transaction distribution
system.l2bus.pkt_count_system.cpu.icache.mem_side::system.l2cache.cpu_side         8375                       # Packet count per connected master and slave (bytes)
system.l2bus.pkt_count_system.cpu.dcache.mem_side::system.l2cache.cpu_side        49950                       # Packet count per connected master and slave (bytes)
system.l2bus.pkt_count::total                   58325                       # Packet count per connected master and slave (bytes)
system.l2bus.pkt_size_system.cpu.icache.mem_side::system.l2cache.cpu_side       184128                       # Cumulative packet size per connected master and slave (bytes)
system.l2bus.pkt_size_system.cpu.dcache.mem_side::system.l2cache.cpu_side      1265408                       # Cumulative packet size per connected master and slave (bytes)
system.l2bus.pkt_size::total                  1449536                       # Cumulative packet size per connected master and slave (bytes)
system.l2bus.snoops                             10528                       # Total snoops (count)
system.l2bus.snoopTraffic                       86720                       # Total snoop traffic (bytes)
system.l2bus.snoop_fanout::samples              30393                       # Request fanout histogram
system.l2bus.snoop_fanout::mean              0.014839                       # Request fanout histogram
system.l2bus.snoop_fanout::stdev             0.120910                       # Request fanout histogram
system.l2bus.snoop_fanout::underflows               0      0.00%      0.00% # Request fanout histogram
system.l2bus.snoop_fanout::0                    29942     98.52%     98.52% # Request fanout histogram
system.l2bus.snoop_fanout::1                      451      1.48%    100.00% # Request fanout histogram
system.l2bus.snoop_fanout::2                        0      0.00%    100.00% # Request fanout histogram
system.l2bus.snoop_fanout::overflows                0      0.00%    100.00% # Request fanout histogram
system.l2bus.snoop_fanout::min_value                0                       # Request fanout histogram
system.l2bus.snoop_fanout::max_value                1                       # Request fanout histogram
system.l2bus.snoop_fanout::total                30393                       # Request fanout histogram
system.l2bus.respLayer1.occupancy            20391198                       # Layer occupancy (ticks)
system.l2bus.respLayer1.utilization               1.8                       # Layer utilization (%)
system.l2bus.reqLayer0.occupancy             19055406                       # Layer occupancy (ticks)
system.l2bus.reqLayer0.utilization                1.7                       # Layer utilization (%)
system.l2bus.respLayer0.occupancy             3454398                       # Layer occupancy (ticks)
system.l2bus.respLayer0.utilization               0.3                       # Layer utilization (%)
system.clk_domain.clock                           400                       # Clock period in ticks
system.clk_domain.voltage_domain.voltage            1                       # Voltage in Volts
system.cpu.pwrStateResidencyTicks::ON      1106376800                       # Cumulative time (in ticks) in various power states
system.cpu.icache.pwrStateResidencyTicks::UNDEFINED   1106376800                       # Cumulative time (in ticks) in various power states
system.cpu.icache.demand_hits::.cpu.inst       240437                       # number of demand (read+write) hits
system.cpu.icache.demand_hits::total           240437                       # number of demand (read+write) hits
system.cpu.icache.overall_hits::.cpu.inst       240437                       # number of overall hits
system.cpu.icache.overall_hits::total          240437                       # number of overall hits
system.cpu.icache.demand_misses::.cpu.inst         3570                       # number of demand (read+write) misses
system.cpu.icache.demand_misses::total           3570                       # number of demand (read+write) misses
system.cpu.icache.overall_misses::.cpu.inst         3570                       # number of overall misses
system.cpu.icache.overall_misses::total          3570                       # number of overall misses
system.cpu.icache.demand_miss_latency::.cpu.inst    178478000                       # number of demand (read+write) miss cycles
system.cpu.icache.demand_miss_latency::total    178478000                       # number of demand (read+write) miss cycles
system.cpu.icache.overall_miss_latency::.cpu.inst    178478000                       # number of overall miss cycles
system.cpu.icache.overall_miss_latency::total    178478000                       # number of overall miss cycles
system.cpu.icache.demand_accesses::.cpu.inst       244007                       # number of demand (read+write) accesses
system.cpu.icache.demand_accesses::total       244007                       # number of demand (read+write) accesses
system.cpu.icache.overall_accesses::.cpu.inst       244007                       # number of overall (read+write) accesses
system.cpu.icache.overall_accesses::total       244007                       # number of overall (read+write) accesses
system.cpu.icache.demand_miss_rate::.cpu.inst     0.014631                       # miss rate for demand accesses
system.cpu.icache.demand_miss_rate::total     0.014631                       # miss rate for demand accesses
system.cpu.icache.overall_miss_rate::.cpu.inst     0.014631                       # miss rate for overall accesses
system.cpu.icache.overall_miss_rate::total     0.014631                       # miss rate for overall accesses
system.cpu.icache.demand_avg_miss_latency::.cpu.inst 49993.837535                       # average overall miss latency
system.cpu.icache.demand_avg_miss_latency::total 49993.837535                       # average overall miss latency
system.cpu.icache.overall_avg_miss_latency::.cpu.inst 49993.837535                       # average overall miss latency
system.cpu.icache.overall_avg_miss_latency::total 49993.837535                       # average overall miss latency
system.cpu.icache.blocked_cycles::no_mshrs           51                       # number of cycles access was blocked
system.cpu.icache.blocked_cycles::no_targets            0                       # number of cycles access was blocked
system.cpu.icache.blocked::no_mshrs                 2                       # number of cycles access was blocked
system.cpu.icache.blocked::no_targets               0                       # number of cycles access was blocked
system.cpu.icache.avg_blocked_cycles::no_mshrs    25.500000                       # average number of cycles each access was blocked
system.cpu.icache.avg_blocked_cycles::no_targets          nan                       # average number of cycles each access was blocked
system.cpu.icache.writebacks::.writebacks            2                       # number of writebacks
system.cpu.icache.writebacks::total                 2                       # number of writebacks
system.cpu.icache.demand_mshr_hits::.cpu.inst          692                       # number of demand (read+write) MSHR hits
system.cpu.icache.demand_mshr_hits::total          692                       # number of demand (read+write) MSHR hits
system.cpu.icache.overall_mshr_hits::.cpu.inst          692                       # number of overall MSHR hits
system.cpu.icache.overall_mshr_hits::total          692                       # number of overall MSHR hits
system.cpu.icache.demand_mshr_misses::.cpu.inst         2878                       # number of demand (read+write) MSHR misses
system.cpu.icache.demand_mshr_misses::total         2878                       # number of demand (read+write) MSHR misses
system.cpu.icache.overall_mshr_misses::.cpu.inst         2878                       # number of overall MSHR misses
system.cpu.icache.overall_mshr_misses::total         2878                       # number of overall MSHR misses
system.cpu.icache.demand_mshr_miss_latency::.cpu.inst    143974000                       # number of demand (read+write) MSHR miss cycles
system.cpu.icache.demand_mshr_miss_latency::total    143974000                       # number of demand (read+write) MSHR miss cycles
system.cpu.icache.overall_mshr_miss_latency::.cpu.inst    143974000                       # number of overall MSHR miss cycles
system.cpu.icache.overall_mshr_miss_latency::total    143974000                       # number of overall MSHR miss cycles
system.cpu.icache.demand_mshr_miss_rate::.cpu.inst     0.011795                       # mshr miss rate for demand accesses
system.cpu.icache.demand_mshr_miss_rate::total     0.011795                       # mshr miss rate for demand accesses
system.cpu.icache.overall_mshr_miss_rate::.cpu.inst     0.011795                       # mshr miss rate for overall accesses
system.cpu.icache.overall_mshr_miss_rate::total     0.011795                       # mshr miss rate for overall accesses
system.cpu.icache.demand_avg_mshr_miss_latency::.cpu.inst 50025.712300                       # average overall mshr miss latency
system.cpu.icache.demand_avg_mshr_miss_latency::total 50025.712300                       # average overall mshr miss latency
system.cpu.icache.overall_avg_mshr_miss_latency::.cpu.inst 50025.712300                       # average overall mshr miss latency
system.cpu.icache.overall_avg_mshr_miss_latency::total 50025.712300                       # average overall mshr miss latency
system.cpu.icache.replacements                   2622                       # number of replacements
system.cpu.icache.ReadReq_hits::.cpu.inst       240437                       # number of ReadReq hits
system.cpu.icache.ReadReq_hits::total          240437                       # number of ReadReq hits
system.cpu.icache.ReadReq_misses::.cpu.inst         3570                       # number of ReadReq misses
system.cpu.icache.ReadReq_misses::total          3570                       # number of ReadReq misses
system.cpu.icache.ReadReq_miss_latency::.cpu.inst    178478000                       # number of ReadReq miss cycles
system.cpu.icache.ReadReq_miss_latency::total    178478000                       # number of ReadReq miss cycles
system.cpu.icache.ReadReq_accesses::.cpu.inst       244007                       # number of ReadReq accesses(hits+misses)
system.cpu.icache.ReadReq_accesses::total       244007                       # number of ReadReq accesses(hits+misses)
system.cpu.icache.ReadReq_miss_rate::.cpu.inst     0.014631                       # miss rate for ReadReq accesses
system.cpu.icache.ReadReq_miss_rate::total     0.014631                       # miss rate for ReadReq accesses
system.cpu.icache.ReadReq_avg_miss_latency::.cpu.inst 49993.837535                       # average ReadReq miss latency
system.cpu.icache.ReadReq_avg_miss_latency::total 49993.837535                       # average ReadReq miss latency
system.cpu.icache.ReadReq_mshr_hits::.cpu.inst          692                       # number of ReadReq MSHR hits
system.cpu.icache.ReadReq_mshr_hits::total          692                       # number of ReadReq MSHR hits
system.cpu.icache.ReadReq_mshr_misses::.cpu.inst         2878                       # number of ReadReq MSHR misses
system.cpu.icache.ReadReq_mshr_misses::total         2878                       # number of ReadReq MSHR misses
system.cpu.icache.ReadReq_mshr_miss_latency::.cpu.inst    143974000                       # number of ReadReq MSHR miss cycles
system.cpu.icache.ReadReq_mshr_miss_latency::total    143974000                       # number of ReadReq MSHR miss cycles
system.cpu.icache.ReadReq_mshr_miss_rate::.cpu.inst     0.011795                       # mshr miss rate for ReadReq accesses
system.cpu.icache.ReadReq_mshr_miss_rate::total     0.011795                       # mshr miss rate for ReadReq accesses
system.cpu.icache.ReadReq_avg_mshr_miss_latency::.cpu.inst 50025.712300                       # average ReadReq mshr miss latency
system.cpu.icache.ReadReq_avg_mshr_miss_latency::total 50025.712300                       # average ReadReq mshr miss latency
system.cpu.icache.prefetcher.pwrStateResidencyTicks::UNDEFINED   1106376800                       # Cumulative time (in ticks) in various power states
system.cpu.icache.tags.pwrStateResidencyTicks::UNDEFINED   1106376800                       # Cumulative time (in ticks) in various power states
system.cpu.icache.tags.tagsinuse           253.514967                       # Cycle average of tags in use
system.cpu.icache.tags.total_refs              232523                       # Total number of references to valid blocks.
system.cpu.icache.tags.sampled_refs              2622                       # Sample count of references to valid blocks.
system.cpu.icache.tags.avg_refs             88.681541                       # Average number of references to valid blocks.
system.cpu.icache.tags.warmup_cycle             66400                       # Cycle when the warmup percentage was hit.
system.cpu.icache.tags.occ_blocks::.cpu.inst   253.514967                       # Average occupied blocks per requestor
system.cpu.icache.tags.occ_percent::.cpu.inst     0.990293                       # Average percentage of cache occupancy
system.cpu.icache.tags.occ_percent::total     0.990293                       # Average percentage of cache occupancy
system.cpu.icache.tags.occ_task_id_blocks::1024          256                       # Occupied blocks per task id
system.cpu.icache.tags.age_task_id_blocks_1024::0          110                       # Occupied blocks per task id
system.cpu.icache.tags.age_task_id_blocks_1024::1          120                       # Occupied blocks per task id
system.cpu.icache.tags.age_task_id_blocks_1024::2           26                       # Occupied blocks per task id
system.cpu.icache.tags.occ_task_id_percent::1024            1                       # Percentage of cache occupancy per task id
system.cpu.icache.tags.tag_accesses            490892                       # Number of tag accesses
system.cpu.icache.tags.data_accesses           490892                       # Number of data accesses
system.cpu.dtb.walker.pwrStateResidencyTicks::UNDEFINED   1106376800                       # Cumulative time (in ticks) in various power states
system.cpu.interrupts.clk_domain.clock           6400                       # Clock period in ticks
system.cpu.itb.walker.pwrStateResidencyTicks::UNDEFINED   1106376800                       # Cumulative time (in ticks) in various power states
system.cpu.dcache.pwrStateResidencyTicks::UNDEFINED   1106376800                       # Cumulative time (in ticks) in various power states
system.cpu.dcache.demand_hits::.cpu.data       689883                       # number of demand (read+write) hits
system.cpu.dcache.demand_hits::total           689883                       # number of demand (read+write) hits
system.cpu.dcache.overall_hits::.cpu.data       689883                       # number of overall hits
system.cpu.dcache.overall_hits::total          689883                       # number of overall hits
system.cpu.dcache.demand_misses::.cpu.data        34785                       # number of demand (read+write) misses
system.cpu.dcache.demand_misses::total          34785                       # number of demand (read+write) misses
system.cpu.dcache.overall_misses::.cpu.data        34785                       # number of overall misses
system.cpu.dcache.overall_misses::total         34785                       # number of overall misses
system.cpu.dcache.demand_miss_latency::.cpu.data   1684860399                       # number of demand (read+write) miss cycles
system.cpu.dcache.demand_miss_latency::total   1684860399                       # number of demand (read+write) miss cycles
system.cpu.dcache.overall_miss_latency::.cpu.data   1684860399                       # number of overall miss cycles
system.cpu.dcache.overall_miss_latency::total   1684860399                       # number of overall miss cycles
system.cpu.dcache.demand_accesses::.cpu.data       724668                       # number of demand (read+write) accesses
system.cpu.dcache.demand_accesses::total       724668                       # number of demand (read+write) accesses
system.cpu.dcache.overall_accesses::.cpu.data       724668                       # number of overall (read+write) accesses
system.cpu.dcache.overall_accesses::total       724668                       # number of overall (read+write) accesses
system.cpu.dcache.demand_miss_rate::.cpu.data     0.048001                       # miss rate for demand accesses
system.cpu.dcache.demand_miss_rate::total     0.048001                       # miss rate for demand accesses
system.cpu.dcache.overall_miss_rate::.cpu.data     0.048001                       # miss rate for overall accesses
system.cpu.dcache.overall_miss_rate::total     0.048001                       # miss rate for overall accesses
system.cpu.dcache.demand_avg_miss_latency::.cpu.data 48436.406468                       # average overall miss latency
system.cpu.dcache.demand_avg_miss_latency::total 48436.406468                       # average overall miss latency
system.cpu.dcache.overall_avg_miss_latency::.cpu.data 48436.406468                       # average overall miss latency
system.cpu.dcache.overall_avg_miss_latency::total 48436.406468                       # average overall miss latency
system.cpu.dcache.blocked_cycles::no_mshrs        28720                       # number of cycles access was blocked
system.cpu.dcache.blocked_cycles::no_targets          201                       # number of cycles access was blocked
system.cpu.dcache.blocked::no_mshrs               783                       # number of cycles access was blocked
system.cpu.dcache.blocked::no_targets               2                       # number of cycles access was blocked
system.cpu.dcache.avg_blocked_cycles::no_mshrs    36.679438                       # average number of cycles each access was blocked
system.cpu.dcache.avg_blocked_cycles::no_targets   100.500000                       # average number of cycles each access was blocked
system.cpu.dcache.unused_prefetches              1778                       # number of HardPF blocks evicted w/o reference
system.cpu.dcache.writebacks::.writebacks         2782                       # number of writebacks
system.cpu.dcache.writebacks::total              2782                       # number of writebacks
system.cpu.dcache.demand_mshr_hits::.cpu.data        22176                       # number of demand (read+write) MSHR hits
system.cpu.dcache.demand_mshr_hits::total        22176                       # number of demand (read+write) MSHR hits
system.cpu.dcache.overall_mshr_hits::.cpu.data        22176                       # number of overall MSHR hits
system.cpu.dcache.overall_mshr_hits::total        22176                       # number of overall MSHR hits
system.cpu.dcache.demand_mshr_misses::.cpu.data        12609                       # number of demand (read+write) MSHR misses
system.cpu.dcache.demand_mshr_misses::total        12609                       # number of demand (read+write) MSHR misses
system.cpu.dcache.overall_mshr_misses::.cpu.data        12609                       # number of overall MSHR misses
system.cpu.dcache.overall_mshr_misses::.cpu.dcache.prefetcher         4383                       # number of overall MSHR misses
system.cpu.dcache.overall_mshr_misses::total        16992                       # number of overall MSHR misses
system.cpu.dcache.demand_mshr_miss_latency::.cpu.data    578451599                       # number of demand (read+write) MSHR miss cycles
system.cpu.dcache.demand_mshr_miss_latency::total    578451599                       # number of demand (read+write) MSHR miss cycles
system.cpu.dcache.overall_mshr_miss_latency::.cpu.data    578451599                       # number of overall MSHR miss cycles
system.cpu.dcache.overall_mshr_miss_latency::.cpu.dcache.prefetcher    248874084                       # number of overall MSHR miss cycles
system.cpu.dcache.overall_mshr_miss_latency::total    827325683                       # number of overall MSHR miss cycles
system.cpu.dcache.demand_mshr_miss_rate::.cpu.data     0.017400                       # mshr miss rate for demand accesses
system.cpu.dcache.demand_mshr_miss_rate::total     0.017400                       # mshr miss rate for demand accesses
system.cpu.dcache.overall_mshr_miss_rate::.cpu.data     0.017400                       # mshr miss rate for overall accesses
system.cpu.dcache.overall_mshr_miss_rate::.cpu.dcache.prefetcher          inf                       # mshr miss rate for overall accesses
system.cpu.dcache.overall_mshr_miss_rate::total     0.023448                       # mshr miss rate for overall accesses
system.cpu.dcache.demand_avg_mshr_miss_latency::.cpu.data 45876.088429                       # average overall mshr miss latency
system.cpu.dcache.demand_avg_mshr_miss_latency::total 45876.088429                       # average overall mshr miss latency
system.cpu.dcache.overall_avg_mshr_miss_latency::.cpu.data 45876.088429                       # average overall mshr miss latency
system.cpu.dcache.overall_avg_mshr_miss_latency::.cpu.dcache.prefetcher 56781.675565                       # average overall mshr miss latency
system.cpu.dcache.overall_avg_mshr_miss_latency::total 48689.129178                       # average overall mshr miss latency
system.cpu.dcache.replacements                  15968                       # number of replacements
system.cpu.dcache.ReadReq_hits::.cpu.data       511097                       # number of ReadReq hits
system.cpu.dcache.ReadReq_hits::total          511097                       # number of ReadReq hits
system.cpu.dcache.ReadReq_misses::.cpu.data        32653                       # number of ReadReq misses
system.cpu.dcache.ReadReq_misses::total         32653                       # number of ReadReq misses
system.cpu.dcache.ReadReq_miss_latency::.cpu.data   1580645600                       # number of ReadReq miss cycles
system.cpu.dcache.ReadReq_miss_latency::total   1580645600                       # number of ReadReq miss cycles
system.cpu.dcache.ReadReq_accesses::.cpu.data       543750                       # number of ReadReq accesses(hits+misses)
system.cpu.dcache.ReadReq_accesses::total       543750                       # number of ReadReq accesses(hits+misses)
system.cpu.dcache.ReadReq_miss_rate::.cpu.data     0.060051                       # miss rate for ReadReq accesses
system.cpu.dcache.ReadReq_miss_rate::total     0.060051                       # miss rate for ReadReq accesses
system.cpu.dcache.ReadReq_avg_miss_latency::.cpu.data 48407.362264                       # average ReadReq miss latency
system.cpu.dcache.ReadReq_avg_miss_latency::total 48407.362264                       # average ReadReq miss latency
system.cpu.dcache.ReadReq_mshr_hits::.cpu.data        22136                       # number of ReadReq MSHR hits
system.cpu.dcache.ReadReq_mshr_hits::total        22136                       # number of ReadReq MSHR hits
system.cpu.dcache.ReadReq_mshr_misses::.cpu.data        10517                       # number of ReadReq MSHR misses
system.cpu.dcache.ReadReq_mshr_misses::total        10517                       # number of ReadReq MSHR misses
system.cpu.dcache.ReadReq_mshr_miss_latency::.cpu.data    477311600                       # number of ReadReq MSHR miss cycles
system.cpu.dcache.ReadReq_mshr_miss_latency::total    477311600                       # number of ReadReq MSHR miss cycles
system.cpu.dcache.ReadReq_mshr_miss_rate::.cpu.data     0.019342                       # mshr miss rate for ReadReq accesses
system.cpu.dcache.ReadReq_mshr_miss_rate::total     0.019342                       # mshr miss rate for ReadReq accesses
system.cpu.dcache.ReadReq_avg_mshr_miss_latency::.cpu.data 45384.767519                       # average ReadReq mshr miss latency
system.cpu.dcache.ReadReq_avg_mshr_miss_latency::total 45384.767519                       # average ReadReq mshr miss latency
system.cpu.dcache.WriteReq_hits::.cpu.data       178786                       # number of WriteReq hits
system.cpu.dcache.WriteReq_hits::total         178786                       # number of WriteReq hits
system.cpu.dcache.WriteReq_misses::.cpu.data         2132                       # number of WriteReq misses
system.cpu.dcache.WriteReq_misses::total         2132                       # number of WriteReq misses
system.cpu.dcache.WriteReq_miss_latency::.cpu.data    104214799                       # number of WriteReq miss cycles
system.cpu.dcache.WriteReq_miss_latency::total    104214799                       # number of WriteReq miss cycles
system.cpu.dcache.WriteReq_accesses::.cpu.data       180918                       # number of WriteReq accesses(hits+misses)
system.cpu.dcache.WriteReq_accesses::total       180918                       # number of WriteReq accesses(hits+misses)
system.cpu.dcache.WriteReq_miss_rate::.cpu.data     0.011784                       # miss rate for WriteReq accesses
system.cpu.dcache.WriteReq_miss_rate::total     0.011784                       # miss rate for WriteReq accesses
system.cpu.dcache.WriteReq_avg_miss_latency::.cpu.data 48881.237805                       # average WriteReq miss latency
system.cpu.dcache.WriteReq_avg_miss_latency::total 48881.237805                       # average WriteReq miss latency
system.cpu.dcache.WriteReq_mshr_hits::.cpu.data           40                       # number of WriteReq MSHR hits
system.cpu.dcache.WriteReq_mshr_hits::total           40                       # number of WriteReq MSHR hits
system.cpu.dcache.WriteReq_mshr_misses::.cpu.data         2092                       # number of WriteReq MSHR misses
system.cpu.dcache.WriteReq_mshr_misses::total         2092                       # number of WriteReq MSHR misses
[...]
system.l2cache.overall_mshr_miss_latency::total     23333954                       # number of overall MSHR miss cycles
system.l2cache.demand_mshr_miss_rate::.cpu.inst     0.504310                       # mshr miss rate for demand accesses
system.l2cache.demand_mshr_miss_rate::.cpu.data     0.506667                       # mshr miss rate for demand accesses
system.l2cache.demand_mshr_miss_rate::.cpu.dcache.prefetcher     0.913043                       # mshr miss rate for demand accesses
system.l2cache.demand_mshr_miss_rate::total     0.530612                       # mshr miss rate for demand accesses
system.l2cache.overall_mshr_miss_rate::.cpu.inst     0.504310                       # mshr miss rate for overall accesses
system.l2cache.overall_mshr_miss_rate::.cpu.data     0.506667                       # mshr miss rate for overall accesses
system.l2cache.overall_mshr_miss_rate::.cpu.dcache.prefetcher     0.913043                       # mshr miss rate for overall accesses
system.l2cache.overall_mshr_miss_rate::.l2cache.prefetcher          inf                       # mshr miss rate for overall accesses
system.l2cache.overall_mshr_miss_rate::total     0.534694                       # mshr miss rate for overall accesses
system.l2cache.demand_avg_mshr_miss_latency::.cpu.inst 59123.076923                       # average overall mshr miss latency
system.l2cache.demand_avg_mshr_miss_latency::.cpu.data 58256.140351                       # average overall mshr miss latency
system.l2cache.demand_avg_mshr_miss_latency::.cpu.dcache.prefetcher 64189.428571                       # average overall mshr miss latency
system.l2cache.demand_avg_mshr_miss_latency::total 59415.271795                       # average overall mshr miss latency
system.l2cache.overall_avg_mshr_miss_latency::.cpu.inst 59123.076923                       # average overall mshr miss latency
system.l2cache.overall_avg_mshr_miss_latency::.cpu.data 58256.140351                       # average overall mshr miss latency
system.l2cache.overall_avg_mshr_miss_latency::.cpu.dcache.prefetcher 64189.428571                       # average overall mshr miss latency
system.l2cache.overall_avg_mshr_miss_latency::.l2cache.prefetcher 53999.333333                       # average overall mshr miss latency
system.l2cache.overall_avg_mshr_miss_latency::total 59373.928753                       # average overall mshr miss latency
system.l2cache.replacements                       403                       # number of replacements
system.l2cache.WritebackDirty_hits::.writebacks           82                       # number of WritebackDirty hits
system.l2cache.WritebackDirty_hits::total           82                       # number of WritebackDirty hits
system.l2cache.WritebackDirty_accesses::.writebacks           82                       # number of WritebackDirty accesses(hits+misses)
system.l2cache.WritebackDirty_accesses::total           82                       # number of WritebackDirty accesses(hits+misses)
system.l2cache.CleanEvict_mshr_misses::.writebacks            8                       # number of CleanEvict MSHR misses
system.l2cache.CleanEvict_mshr_misses::total            8                       # number of CleanEvict MSHR misses
system.l2cache.CleanEvict_mshr_miss_rate::.writebacks          inf                       # mshr miss rate for CleanEvict accesses
system.l2cache.CleanEvict_mshr_miss_rate::total          inf                       # mshr miss rate for CleanEvict accesses
system.l2cache.HardPFReq_mshr_misses::.l2cache.prefetcher            3                       # number of HardPFReq MSHR misses
system.l2cache.HardPFReq_mshr_misses::total            3                       # number of HardPFReq MSHR misses
system.l2cache.HardPFReq_mshr_miss_latency::.l2cache.prefetcher       161998                       # number of HardPFReq MSHR miss cycles
system.l2cache.HardPFReq_mshr_miss_latency::total       161998                       # number of HardPFReq MSHR miss cycles
system.l2cache.HardPFReq_mshr_miss_rate::.l2cache.prefetcher          inf                       # mshr miss rate for HardPFReq accesses
system.l2cache.HardPFReq_mshr_miss_rate::total          inf                       # mshr miss rate for HardPFReq accesses
system.l2cache.HardPFReq_avg_mshr_miss_latency::.l2cache.prefetcher 53999.333333                       # average HardPFReq mshr miss latency
system.l2cache.HardPFReq_avg_mshr_miss_latency::total 53999.333333                       # average HardPFReq mshr miss latency
system.l2cache.ReadExReq_hits::.cpu.data            4                       # number of ReadExReq hits
system.l2cache.ReadExReq_hits::total                4                       # number of ReadExReq hits
system.l2cache.ReadExReq_misses::.cpu.data            7                       # number of ReadExReq misses
system.l2cache.ReadExReq_misses::total              7                       # number of ReadExReq misses
system.l2cache.ReadExReq_miss_latency::.cpu.data       436800                       # number of ReadExReq miss cycles
system.l2cache.ReadExReq_miss_latency::total       436800                       # number of ReadExReq miss cycles
system.l2cache.ReadExReq_accesses::.cpu.data           11                       # number of ReadExReq accesses(hits+misses)
system.l2cache.ReadExReq_accesses::total           11                       # number of ReadExReq accesses(hits+misses)
system.l2cache.ReadExReq_miss_rate::.cpu.data     0.636364                       # miss rate for ReadExReq accesses
system.l2cache.ReadExReq_miss_rate::total     0.636364                       # miss rate for ReadExReq accesses
system.l2cache.ReadExReq_avg_miss_latency::.cpu.data        62400                       # average ReadExReq miss latency
system.l2cache.ReadExReq_avg_miss_latency::total        62400                       # average ReadExReq miss latency
system.l2cache.ReadExReq_mshr_misses::.cpu.data            7                       # number of ReadExReq MSHR misses
system.l2cache.ReadExReq_mshr_misses::total            7                       # number of ReadExReq MSHR misses
system.l2cache.ReadExReq_mshr_miss_latency::.cpu.data       380800                       # number of ReadExReq MSHR miss cycles
system.l2cache.ReadExReq_mshr_miss_latency::total       380800                       # number of ReadExReq MSHR miss cycles
system.l2cache.ReadExReq_mshr_miss_rate::.cpu.data     0.636364                       # mshr miss rate for ReadExReq accesses
system.l2cache.ReadExReq_mshr_miss_rate::total     0.636364                       # mshr miss rate for ReadExReq accesses
system.l2cache.ReadExReq_avg_mshr_miss_latency::.cpu.data        54400                       # average ReadExReq mshr miss latency
system.l2cache.ReadExReq_avg_mshr_miss_latency::total        54400                       # average ReadExReq mshr miss latency
system.l2cache.ReadSharedReq_hits::.cpu.inst          230                       # number of ReadSharedReq hits
system.l2cache.ReadSharedReq_hits::.cpu.data          107                       # number of ReadSharedReq hits
system.l2cache.ReadSharedReq_hits::.cpu.dcache.prefetcher            4                       # number of ReadSharedReq hits
system.l2cache.ReadSharedReq_hits::total          341                       # number of ReadSharedReq hits
system.l2cache.ReadSharedReq_misses::.cpu.inst          234                       # number of ReadSharedReq misses
system.l2cache.ReadSharedReq_misses::.cpu.data          107                       # number of ReadSharedReq misses
system.l2cache.ReadSharedReq_misses::.cpu.dcache.prefetcher           42                       # number of ReadSharedReq misses
system.l2cache.ReadSharedReq_misses::total          383                       # number of ReadSharedReq misses
system.l2cache.ReadSharedReq_miss_latency::.cpu.inst     15714800                       # number of ReadSharedReq miss cycles
system.l2cache.ReadSharedReq_miss_latency::.cpu.data      7116400                       # number of ReadSharedReq miss cycles
system.l2cache.ReadSharedReq_miss_latency::.cpu.dcache.prefetcher      3031956                       # number of ReadSharedReq miss cycles
system.l2cache.ReadSharedReq_miss_latency::total     25863156                       # number of ReadSharedReq miss cycles
system.l2cache.ReadSharedReq_accesses::.cpu.inst          464                       # number of ReadSharedReq accesses(hits+misses)
system.l2cache.ReadSharedReq_accesses::.cpu.data          214                       # number of ReadSharedReq accesses(hits+misses)
system.l2cache.ReadSharedReq_accesses::.cpu.dcache.prefetcher           46                       # number of ReadSharedReq accesses(hits+misses)
system.l2cache.ReadSharedReq_accesses::total          724                       # number of ReadSharedReq accesses(hits+misses)
system.l2cache.ReadSharedReq_miss_rate::.cpu.inst     0.504310                       # miss rate for ReadSharedReq accesses
system.l2cache.ReadSharedReq_miss_rate::.cpu.data     0.500000                       # miss rate for ReadSharedReq accesses
system.l2cache.ReadSharedReq_miss_rate::.cpu.dcache.prefetcher     0.913043                       # miss rate for ReadSharedReq accesses
system.l2cache.ReadSharedReq_miss_rate::total     0.529006                       # miss rate for ReadSharedReq accesses
system.l2cache.ReadSharedReq_avg_miss_latency::.cpu.inst 67157.264957                       # average ReadSharedReq miss latency
system.l2cache.ReadSharedReq_avg_miss_latency::.cpu.data 66508.411215                       # average ReadSharedReq miss latency
system.l2cache.ReadSharedReq_avg_miss_latency::.cpu.dcache.prefetcher 72189.428571                       # average ReadSharedReq miss latency
system.l2cache.ReadSharedReq_avg_miss_latency::total 67527.822454                       # average ReadSharedReq miss latency
system.l2cache.ReadSharedReq_mshr_misses::.cpu.inst          234                       # number of ReadSharedReq MSHR misses
system.l2cache.ReadSharedReq_mshr_misses::.cpu.data          107                       # number of ReadSharedReq MSHR misses
system.l2cache.ReadSharedReq_mshr_misses::.cpu.dcache.prefetcher           42                       # number of ReadSharedReq MSHR misses
system.l2cache.ReadSharedReq_mshr_misses::total          383                       # number of ReadSharedReq MSHR misses
system.l2cache.ReadSharedReq_mshr_miss_latency::.cpu.inst     13834800                       # number of ReadSharedReq MSHR miss cycles
system.l2cache.ReadSharedReq_mshr_miss_latency::.cpu.data      6260400                       # number of ReadSharedReq MSHR miss cycles
system.l2cache.ReadSharedReq_mshr_miss_latency::.cpu.dcache.prefetcher      2695956                       # number of ReadSharedReq MSHR miss cycles
system.l2cache.ReadSharedReq_mshr_miss_latency::total     22791156                       # number of ReadSharedReq MSHR miss cycles
system.l2cache.ReadSharedReq_mshr_miss_rate::.cpu.inst     0.504310                       # mshr miss rate for ReadSharedReq accesses
system.l2cache.ReadSharedReq_mshr_miss_rate::.cpu.data     0.500000                       # mshr miss rate for ReadSharedReq accesses
system.l2cache.ReadSharedReq_mshr_miss_rate::.cpu.dcache.prefetcher     0.913043                       # mshr miss rate for ReadSharedReq accesses
system.l2cache.ReadSharedReq_mshr_miss_rate::total     0.529006                       # mshr miss rate for ReadSharedReq accesses
system.l2cache.ReadSharedReq_avg_mshr_miss_latency::.cpu.inst 59123.076923                       # average ReadSharedReq mshr miss latency
system.l2cache.ReadSharedReq_avg_mshr_miss_latency::.cpu.data 58508.411215                       # average ReadSharedReq mshr miss latency
system.l2cache.ReadSharedReq_avg_mshr_miss_latency::.cpu.dcache.prefetcher 64189.428571                       # average ReadSharedReq mshr miss latency
system.l2cache.ReadSharedReq_avg_mshr_miss_latency::total 59506.934726                       # average ReadSharedReq mshr miss latency
system.l2cache.prefetcher.pwrStateResidencyTicks::UNDEFINED     27281600                       # Cumulative time (in ticks) in various power states
system.l2cache.tags.pwrStateResidencyTicks::UNDEFINED     27281600                       # Cumulative time (in ticks) in various power states
system.l2cache.tags.tagsinuse                    4096                       # Cycle average of tags in use
system.l2cache.tags.total_refs                  14083                       # Total number of references to valid blocks.
system.l2cache.tags.sampled_refs                 4499                       # Sample count of references to valid blocks.
system.l2cache.tags.avg_refs                 3.130251                       # Average number of references to valid blocks.
system.l2cache.tags.warmup_cycle                    0                       # Cycle when the warmup percentage was hit.
system.l2cache.tags.occ_blocks::.writebacks    42.630857                       # Average occupied blocks per requestor
system.l2cache.tags.occ_blocks::.cpu.inst  1145.985679                       # Average occupied blocks per requestor
system.l2cache.tags.occ_blocks::.cpu.data  1809.821050                       # Average occupied blocks per requestor
system.l2cache.tags.occ_blocks::.cpu.dcache.prefetcher   959.952684                       # Average occupied blocks per requestor
system.l2cache.tags.occ_blocks::.l2cache.prefetcher   137.609730                       # Average occupied blocks per requestor
system.l2cache.tags.occ_percent::.writebacks     0.010408                       # Average percentage of cache occupancy
system.l2cache.tags.occ_percent::.cpu.inst     0.279782                       # Average percentage of cache occupancy
system.l2cache.tags.occ_percent::.cpu.data     0.441851                       # Average percentage of cache occupancy
system.l2cache.tags.occ_percent::.cpu.dcache.prefetcher     0.234363                       # Average percentage of cache occupancy
system.l2cache.tags.occ_percent::.l2cache.prefetcher     0.033596                       # Average percentage of cache occupancy
system.l2cache.tags.occ_percent::total              1                       # Average percentage of cache occupancy
system.l2cache.tags.occ_task_id_blocks::1022         1041                       # Occupied blocks per task id
system.l2cache.tags.occ_task_id_blocks::1024         3055                       # Occupied blocks per task id
system.l2cache.tags.age_task_id_blocks_1022::0           11                       # Occupied blocks per task id
system.l2cache.tags.age_task_id_blocks_1022::1           35                       # Occupied blocks per task id
system.l2cache.tags.age_task_id_blocks_1022::2          914                       # Occupied blocks per task id
system.l2cache.tags.age_task_id_blocks_1022::3           81                       # Occupied blocks per task id
system.l2cache.tags.age_task_id_blocks_1024::0          178                       # Occupied blocks per task id
system.l2cache.tags.age_task_id_blocks_1024::1          179                       # Occupied blocks per task id
system.l2cache.tags.age_task_id_blocks_1024::2         2416                       # Occupied blocks per task id
system.l2cache.tags.age_task_id_blocks_1024::3          282                       # Occupied blocks per task id
system.l2cache.tags.occ_task_id_percent::1022     0.254150                       # Percentage of cache occupancy per task id
system.l2cache.tags.occ_task_id_percent::1024     0.745850                       # Percentage of cache occupancy per task id
system.l2cache.tags.tag_accesses                12163                       # Number of tag accesses
system.l2cache.tags.data_accesses               12163                       # Number of data accesses
system.mem_ctrl.pwrStateResidencyTicks::UNDEFINED     27281600                       # Cumulative time (in ticks) in various power states
system.mem_ctrl.bytes_read::.cpu.inst           15040                       # Number of bytes read from this memory
system.mem_ctrl.bytes_read::.cpu.data            7296                       # Number of bytes read from this memory
system.mem_ctrl.bytes_read::.cpu.dcache.prefetcher         2688                       # Number of bytes read from this memory
system.mem_ctrl.bytes_read::.l2cache.prefetcher          192                       # Number of bytes read from this memory
system.mem_ctrl.bytes_read::total               25216                       # Number of bytes read from this memory
system.mem_ctrl.bytes_inst_read::.cpu.inst        15040                       # Number of instructions bytes read from this memory
system.mem_ctrl.bytes_inst_read::total          15040                       # Number of instructions bytes read from this memory
system.mem_ctrl.bytes_written::.writebacks         1408                       # Number of bytes written to this memory
system.mem_ctrl.bytes_written::total             1408                       # Number of bytes written to this memory
system.mem_ctrl.num_reads::.cpu.inst              235                       # Number of read requests responded to by this memory
system.mem_ctrl.num_reads::.cpu.data              114                       # Number of read requests responded to by this memory
system.mem_ctrl.num_reads::.cpu.dcache.prefetcher           42                       # Number of read requests responded to by this memory
system.mem_ctrl.num_reads::.l2cache.prefetcher            3                       # Number of read requests responded to by this memory
system.mem_ctrl.num_reads::total                  394                       # Number of read requests responded to by this memory
system.mem_ctrl.num_writes::.writebacks            22                       # Number of write requests responded to by this memory
system.mem_ctrl.num_writes::total                  22                       # Number of write requests responded to by this memory
system.mem_ctrl.bw_read::.cpu.inst          551287315                       # Total read bandwidth from this memory (bytes/s)
system.mem_ctrl.bw_read::.cpu.data          267432995                       # Total read bandwidth from this memory (bytes/s)
system.mem_ctrl.bw_read::.cpu.dcache.prefetcher     98527946                       # Total read bandwidth from this memory (bytes/s)
system.mem_ctrl.bw_read::.l2cache.prefetcher      7037710                       # Total read bandwidth from this memory (bytes/s)
system.mem_ctrl.bw_read::total              924285966                       # Total read bandwidth from this memory (bytes/s)
system.mem_ctrl.bw_inst_read::.cpu.inst     551287315                       # Instruction read bandwidth from this memory (bytes/s)
system.mem_ctrl.bw_inst_read::total         551287315                       # Instruction read bandwidth from this memory (bytes/s)
system.mem_ctrl.bw_write::.writebacks        51609876                       # Write bandwidth from this memory (bytes/s)
system.mem_ctrl.bw_write::total              51609876                       # Write bandwidth from this memory (bytes/s)
system.mem_ctrl.bw_total::.writebacks        51609876                       # Total bandwidth to/from this memory (bytes/s)
system.mem_ctrl.bw_total::.cpu.inst         551287315                       # Total bandwidth to/from this memory (bytes/s)
system.mem_ctrl.bw_total::.cpu.data         267432995                       # Total bandwidth to/from this memory (bytes/s)
system.mem_ctrl.bw_total::.cpu.dcache.prefetcher     98527946                       # Total bandwidth to/from this memory (bytes/s)
system.mem_ctrl.bw_total::.l2cache.prefetcher      7037710                       # Total bandwidth to/from this memory (bytes/s)
system.mem_ctrl.bw_total::total             975895842                       # Total bandwidth to/from this memory (bytes/s)

---------- End Simulation Statistics   ----------
