
---------- Begin Simulation Statistics ----------
final_tick                                 1288494800                       # Number of ticks from beginning of simulation (restored from checkpoints and never reset)
host_inst_rate                                 152035                       # Simulator instruction rate (inst/s)
host_mem_usage                                4422492                       # Number of bytes of host memory used
host_op_rate                                   274245                       # Simulator op (including micro ops) rate (op/s)
host_seconds                                    15.81                       # Real time elapsed on the host
host_tick_rate                               81507467                       # Simulator tick rate (ticks/s)
sim_freq                                 1000000000000                       # Frequency of simulated ticks
sim_insts                                     2403396                       # Number of instructions simulated
sim_ops                                       4335339                       # Number of ops (including micro ops) simulated
sim_seconds                                  0.001288                       # Number of seconds simulated
sim_ticks                                  1288494800                       # Number of ticks simulated
system.cpu.branchPred.BTBCorrect                    0                       # Number of correct BTB predictions (this stat may not work properly.
system.cpu.branchPred.BTBHitPct              0.000000                       # BTB Hit Percentage
system.cpu.branchPred.BTBHits                       0                       # Number of BTB hits
system.cpu.branchPred.BTBLookups               524513                       # Number of BTB lookups
system.cpu.branchPred.RASInCorrect                  7                       # Number of incorrect RAS predictions.
system.cpu.branchPred.condIncorrect             26031                       # Number of conditional branches incorrect
system.cpu.branchPred.condPredicted            535318                       # Number of conditional branches predicted
system.cpu.branchPred.indirectHits             293341                       # Number of indirect target hits.
system.cpu.branchPred.indirectLookups          524513                       # Number of indirect predictor lookups.
system.cpu.branchPred.indirectMisses           231172                       # Number of indirect misses.
system.cpu.branchPred.lookups                  592687                       # Number of BP lookups
system.cpu.branchPred.usedRAS                   23040                       # Number of times the RAS was used to get a target.
system.cpu.branchPredindirectMispredicted        14453                       # Number of mispredicted indirect branches.
system.cpu.cc_regfile_reads                   2841223                       # number of cc regfile reads
system.cpu.cc_regfile_writes                  2083477                       # number of cc regfile writes
system.cpu.commit.amos                              0                       # Number of atomic instructions committed
system.cpu.commit.branchMispredicts             26134                       # The number of times a branch was mispredicted
system.cpu.commit.branches                     447425                       # Number of branches committed
system.cpu.commit.bw_lim_events                718864                       # number cycles where commit BW limit reached
system.cpu.commit.commitNonSpecStalls             761                       # The number of times commit has been forced to stall to communicate backwards
system.cpu.commit.commitSquashedInsts          884539                       # The number of squashed insts skipped by commit
system.cpu.commit.committedInsts              2403396                       # Number of instructions committed
system.cpu.commit.committedOps                4335339                       # Number of ops (including micro ops) committed
system.cpu.commit.committed_per_cycle::samples      2808233                       # Number of insts commited each cycle
system.cpu.commit.committed_per_cycle::mean     1.543796                       # Number of insts commited each cycle
system.cpu.commit.committed_per_cycle::stdev     1.723889                       # Number of insts commited each cycle
system.cpu.commit.committed_per_cycle::underflows            0      0.00%      0.00% # Number of insts commited each cycle
system.cpu.commit.committed_per_cycle::0      1396168     49.72%     49.72% # Number of insts commited each cycle
system.cpu.commit.committed_per_cycle::1       198167      7.06%     56.77% # Number of insts commited each cycle
system.cpu.commit.committed_per_cycle::2       223386      7.95%     64.73% # Number of insts commited each cycle
system.cpu.commit.committed_per_cycle::3       271648      9.67%     74.40% # Number of insts commited each cycle
system.cpu.commit.committed_per_cycle::4       718864     25.60%    100.00% # Number of insts commited each cycle
system.cpu.commit.committed_per_cycle::overflows            0      0.00%    100.00% # Number of insts commited each cycle
system.cpu.commit.committed_per_cycle::min_value            0                       # Number of insts commited each cycle
system.cpu.commit.committed_per_cycle::max_value            4                       # Number of insts commited each cycle
system.cpu.commit.committed_per_cycle::total      2808233                       # Number of insts commited each cycle
system.cpu.commit.fp_insts                     116721                       # Number of committed floating point instructions.
system.cpu.commit.function_calls                21143                       # Number of function calls committed.
system.cpu.commit.int_insts                   4244651                       # Number of committed integer instructions.
system.cpu.commit.loads                        566593                       # Number of loads committed
system.cpu.commit.membars                           1                       # Number of memory barriers committed
system.cpu.commit.op_class_0::No_OpClass        25948      0.60%      0.60% # Class of committed instruction
system.cpu.commit.op_class_0::IntAlu          3397865     78.38%     78.97% # Class of committed instruction
system.cpu.commit.op_class_0::IntMult              27      0.00%     78.98% # Class of committed instruction
system.cpu.commit.op_class_0::IntDiv            36064      0.83%     79.81% # Class of committed instruction
system.cpu.commit.op_class_0::FloatAdd           2872      0.07%     79.87% # Class of committed instruction
system.cpu.commit.op_class_0::FloatCmp              0      0.00%     79.87% # Class of committed instruction
system.cpu.commit.op_class_0::FloatCvt           1248      0.03%     79.90% # Class of committed instruction
system.cpu.commit.op_class_0::FloatMult             0      0.00%     79.90% # Class of committed instruction
system.cpu.commit.op_class_0::FloatMultAcc            0      0.00%     79.90% # Class of committed instruction
system.cpu.commit.op_class_0::FloatDiv              0      0.00%     79.90% # Class of committed instruction
system.cpu.commit.op_class_0::FloatMisc             0      0.00%     79.90% # Class of committed instruction
system.cpu.commit.op_class_0::FloatSqrt             0      0.00%     79.90% # Class of committed instruction
system.cpu.commit.op_class_0::SimdAdd            6238      0.14%     80.05% # Class of committed instruction
system.cpu.commit.op_class_0::SimdAddAcc            0      0.00%     80.05% # Class of committed instruction
system.cpu.commit.op_class_0::SimdAlu           35258      0.81%     80.86% # Class of committed instruction
system.cpu.commit.op_class_0::SimdCmp              42      0.00%     80.86% # Class of committed instruction
system.cpu.commit.op_class_0::SimdCvt           18486      0.43%     81.29% # Class of committed instruction
system.cpu.commit.op_class_0::SimdMisc          12860      0.30%     81.58% # Class of committed instruction
system.cpu.commit.op_class_0::SimdMult              0      0.00%     81.58% # Class of committed instruction
system.cpu.commit.op_class_0::SimdMultAcc            0      0.00%     81.58% # Class of committed instruction
system.cpu.commit.op_class_0::SimdShift          1082      0.02%     81.61% # Class of committed instruction
system.cpu.commit.op_class_0::SimdShiftAcc            0      0.00%     81.61% # Class of committed instruction
system.cpu.commit.op_class_0::SimdDiv               0      0.00%     81.61% # Class of committed instruction
system.cpu.commit.op_class_0::SimdSqrt              0      0.00%     81.61% # Class of committed instruction
system.cpu.commit.op_class_0::SimdFloatAdd            0      0.00%     81.61% # Class of committed instruction
system.cpu.commit.op_class_0::SimdFloatAlu            0      0.00%     81.61% # Class of committed instruction
system.cpu.commit.op_class_0::SimdFloatCmp            0      0.00%     81.61% # Class of committed instruction
system.cpu.commit.op_class_0::SimdFloatCvt            0      0.00%     81.61% # Class of committed instruction
system.cpu.commit.op_class_0::SimdFloatDiv            0      0.00%     81.61% # Class of committed instruction
system.cpu.commit.op_class_0::SimdFloatMisc            0      0.00%     81.61% # Class of committed instruction
system.cpu.commit.op_class_0::SimdFloatMult            0      0.00%     81.61% # Class of committed instruction
system.cpu.commit.op_class_0::SimdFloatMultAcc            0      0.00%     81.61% # Class of committed instruction
system.cpu.commit.op_class_0::SimdFloatSqrt            0      0.00%     81.61% # Class of committed instruction
system.cpu.commit.op_class_0::SimdReduceAdd            0      0.00%     81.61% # Class of committed instruction
system.cpu.commit.op_class_0::SimdReduceAlu            0      0.00%     81.61% # Class of committed instruction
system.cpu.commit.op_class_0::SimdReduceCmp            0      0.00%     81.61% # Class of committed instruction
system.cpu.commit.op_class_0::SimdFloatReduceAdd            0      0.00%     81.61% # Class of committed instruction
system.cpu.commit.op_class_0::SimdFloatReduceCmp            0      0.00%     81.61% # Class of committed instruction
system.cpu.commit.op_class_0::SimdAes               0      0.00%     81.61% # Class of committed instruction
system.cpu.commit.op_class_0::SimdAesMix            0      0.00%     81.61% # Class of committed instruction
system.cpu.commit.op_class_0::SimdSha1Hash            0      0.00%     81.61% # Class of committed instruction
system.cpu.commit.op_class_0::SimdSha1Hash2            0      0.00%     81.61% # Class of committed instruction
system.cpu.commit.op_class_0::SimdSha256Hash            0      0.00%     81.61% # Class of committed instruction
system.cpu.commit.op_class_0::SimdSha256Hash2            0      0.00%     81.61% # Class of committed instruction
system.cpu.commit.op_class_0::SimdShaSigma2            0      0.00%     81.61% # Class of committed instruction
system.cpu.commit.op_class_0::SimdShaSigma3            0      0.00%     81.61% # Class of committed instruction
system.cpu.commit.op_class_0::SimdPredAlu            0      0.00%     81.61% # Class of committed instruction
system.cpu.commit.op_class_0::MemRead          540967     12.48%     94.09% # Class of committed instruction
system.cpu.commit.op_class_0::MemWrite         218561      5.04%     99.13% # Class of committed instruction
system.cpu.commit.op_class_0::FloatMemRead        25626      0.59%     99.72% # Class of committed instruction
system.cpu.commit.op_class_0::FloatMemWrite        12195      0.28%    100.00% # Class of committed instruction
system.cpu.commit.op_class_0::IprAccess             0      0.00%    100.00% # Class of committed instruction
system.cpu.commit.op_class_0::InstPrefetch            0      0.00%    100.00% # Class of committed instruction
system.cpu.commit.op_class_0::total           4335339                       # Class of committed instruction
system.cpu.commit.refs                         797349                       # Number of memory references committed
system.cpu.commit.swp_count                         0                       # Number of s/w prefetches committed
system.cpu.commit.vec_insts                         0                       # Number of committed Vector instructions.
system.cpu.committedInsts                     2403396                       # Number of Instructions Simulated
system.cpu.committedOps                       4335339                       # Number of Ops (including micro ops) Simulated
system.cpu.cpi                               1.340286                       # CPI: Cycles Per Instruction
system.cpu.cpi_total                         1.340286                       # CPI: Total CPI of All Threads
system.cpu.dcache.prefetcher.num_hwpf_issued        11745                       # number of hwpf issued
system.cpu.dcache.prefetcher.pfBufferHit        38585                       # number of redundant prefetches already in prefetch queue
system.cpu.dcache.prefetcher.pfIdentified        59743                       # number of prefetch candidates identified
system.cpu.dcache.prefetcher.pfInCache              0                       # number of redundant prefetches already in cache/mshr dropped
system.cpu.dcache.prefetcher.pfRemovedFull            0                       # number of prefetches dropped due to prefetch queue size
system.cpu.dcache.prefetcher.pfSpanPage          5029                       # number of prefetches that crossed the page
system.cpu.decode.BlockedCycles               1203135                       # Number of cycles decode is blocked
system.cpu.decode.DecodedInsts                5443185                       # Number of instructions handled by decode
system.cpu.decode.IdleCycles                   379465                       # Number of cycles decode is idle
system.cpu.decode.RunCycles                   1346956                       # Number of cycles decode is running
system.cpu.decode.SquashCycles                  26198                       # Number of cycles decode is squashing
system.cpu.decode.UnblockCycles                 93903                       # Number of cycles decode is unblocking
system.cpu.dtb.rdAccesses                      649072                       # TLB accesses on read requests
system.cpu.dtb.rdMisses                          2115                       # TLB misses on read requests
system.cpu.dtb.wrAccesses                      249048                       # TLB accesses on write requests
system.cpu.dtb.wrMisses                           219                       # TLB misses on write requests
system.cpu.fetch.Branches                      592687                       # Number of branches that fetch encountered
system.cpu.fetch.CacheLines                    324252                       # Number of cache lines fetched
system.cpu.fetch.Cycles                       2598616                       # Number of cycles fetch has run and was not squashing or blocked
system.cpu.fetch.IcacheSquashes                  6460                       # Number of outstanding Icache misses that were squashed
system.cpu.fetch.Insts                        3170327                       # Number of instructions fetch has processed
system.cpu.fetch.MiscStallCycles                  131                       # Number of cycles fetch has spent waiting on interrupts, or bad addresses, or out of MSHRs
system.cpu.fetch.PendingQuiesceStallCycles            8                       # Number of stall cycles due to pending quiesce instructions
system.cpu.fetch.PendingTrapStallCycles           705                       # Number of stall cycles due to pending traps
system.cpu.fetch.SquashCycles                   52396                       # Number of cycles fetch has spent squashing
system.cpu.fetch.branchRate                  0.183994                       # Number of branch fetches per cycle
system.cpu.fetch.icacheStallCycles             423999                       # Number of cycles fetch is stalled on an Icache miss
system.cpu.fetch.predictedBranches             316381                       # Number of branches that fetch has predicted taken
system.cpu.fetch.rate                        0.984195                       # Number of inst fetches per cycle
system.cpu.fetch.rateDist::samples            3049657                       # Number of instructions fetched each cycle (Total)
system.cpu.fetch.rateDist::mean              1.875045                       # Number of instructions fetched each cycle (Total)
system.cpu.fetch.rateDist::stdev             1.920637                       # Number of instructions fetched each cycle (Total)
system.cpu.fetch.rateDist::underflows               0      0.00%      0.00% # Number of instructions fetched each cycle (Total)
system.cpu.fetch.rateDist::0                  1486582     48.75%     48.75% # Number of instructions fetched each cycle (Total)
system.cpu.fetch.rateDist::1                    93030      3.05%     51.80% # Number of instructions fetched each cycle (Total)
system.cpu.fetch.rateDist::2                    71348      2.34%     54.14% # Number of instructions fetched each cycle (Total)
system.cpu.fetch.rateDist::3                   112271      3.68%     57.82% # Number of instructions fetched each cycle (Total)
system.cpu.fetch.rateDist::4                  1286426     42.18%    100.00% # Number of instructions fetched each cycle (Total)
system.cpu.fetch.rateDist::overflows                0      0.00%    100.00% # Number of instructions fetched each cycle (Total)
system.cpu.fetch.rateDist::min_value                0                       # Number of instructions fetched each cycle (Total)
system.cpu.fetch.rateDist::max_value                4                       # Number of instructions fetched each cycle (Total)
system.cpu.fetch.rateDist::total              3049657                       # Number of instructions fetched each cycle (Total)
system.cpu.fp_regfile_reads                    193838                       # number of floating regfile reads
system.cpu.fp_regfile_writes                   102934                       # number of floating regfile writes
system.cpu.fuPool.fu_ticks_busy::IntALU(0)    255527600                       # Total ticks fu was busy
system.cpu.fuPool.fu_ticks_busy::IntALU(1)    255527200                       # Total ticks fu was busy
system.cpu.fuPool.fu_ticks_busy::IntALU(2)    255527200                       # Total ticks fu was busy
system.cpu.fuPool.fu_ticks_busy::IntALU(3)    255527200                       # Total ticks fu was busy
system.cpu.fuPool.fu_ticks_busy::IntALU(4)    255527200                       # Total ticks fu was busy
system.cpu.fuPool.fu_ticks_busy::IntALU(5)    255527200                       # Total ticks fu was busy
system.cpu.fuPool.fu_ticks_busy::IntMultDiv(0)      7935600                       # Total ticks fu was busy
system.cpu.fuPool.fu_ticks_busy::IntMultDiv(1)      7935200                       # Total ticks fu was busy
system.cpu.fuPool.fu_ticks_busy::FP_ALU(0)       559200                       # Total ticks fu was busy
system.cpu.fuPool.fu_ticks_busy::FP_ALU(1)       559200                       # Total ticks fu was busy
system.cpu.fuPool.fu_ticks_busy::FP_ALU(2)       558400                       # Total ticks fu was busy
system.cpu.fuPool.fu_ticks_busy::FP_ALU(3)       558400                       # Total ticks fu was busy
system.cpu.fuPool.fu_ticks_busy::FP_MultDiv(0)            0                       # Total ticks fu was busy
system.cpu.fuPool.fu_ticks_busy::FP_MultDiv(1)            0                       # Total ticks fu was busy
system.cpu.fuPool.fu_ticks_busy::SIMD_Unit(0)      8271200                       # Total ticks fu was busy
system.cpu.fuPool.fu_ticks_busy::SIMD_Unit(1)      8132000                       # Total ticks fu was busy
system.cpu.fuPool.fu_ticks_busy::SIMD_Unit(2)      8101600                       # Total ticks fu was busy
system.cpu.fuPool.fu_ticks_busy::SIMD_Unit(3)      8232800                       # Total ticks fu was busy
system.cpu.fuPool.fu_ticks_busy::PredALU(0)            0                       # Total ticks fu was busy
system.cpu.fuPool.fu_ticks_busy::RdWrPort(0)     91236000                       # Total ticks fu was busy
system.cpu.fuPool.fu_ticks_busy::RdWrPort(1)     91257600                       # Total ticks fu was busy
system.cpu.fuPool.fu_ticks_busy::RdWrPort(2)     91232400                       # Total ticks fu was busy
system.cpu.fuPool.fu_ticks_busy::RdWrPort(3)     91268400                       # Total ticks fu was busy
system.cpu.fuPool.fu_ticks_busy::IprPort(0)            0                       # Total ticks fu was busy
system.cpu.fuPool.fu_ticks_busy::total     1949001600                       # Total ticks fu was busy
system.cpu.icache.prefetcher.num_hwpf_issued            0                       # number of hwpf issued
system.cpu.icache.prefetcher.pfBufferHit            0                       # number of redundant prefetches already in prefetch queue
system.cpu.icache.prefetcher.pfIdentified            0                       # number of prefetch candidates identified
system.cpu.icache.prefetcher.pfInCache              0                       # number of redundant prefetches already in cache/mshr dropped
system.cpu.icache.prefetcher.pfRemovedFull            0                       # number of prefetches dropped due to prefetch queue size
system.cpu.icache.prefetcher.pfSpanPage             0                       # number of prefetches that crossed the page
system.cpu.idleCycles                          171581                       # Total number of cycles that the CPU has spent unscheduled due to idling
system.cpu.iew.branchMispredicts                30801                       # Number of branch mispredicts detected at execute
system.cpu.iew.exec_branches                   477525                       # Number of branches executed
system.cpu.iew.exec_nop                             0                       # number of nop insts executed
system.cpu.iew.exec_rate                     1.510645                       # Inst execution rate
system.cpu.iew.exec_refs                       898904                       # number of memory reference insts executed
system.cpu.iew.exec_stores                     249039                       # Number of stores executed
system.cpu.iew.exec_swp                             0                       # number of swp insts executed
system.cpu.iew.iewBlockCycles                  715920                       # Number of cycles IEW is blocking
system.cpu.iew.iewDispLoadInsts                678841                       # Number of dispatched load instructions
system.cpu.iew.iewDispNonSpecInsts                958                       # Number of dispatched non-speculative instructions
system.cpu.iew.iewDispSquashedInsts               629                       # Number of squashed instructions skipped by dispatch
system.cpu.iew.iewDispStoreInsts               261978                       # Number of dispatched store instructions
system.cpu.iew.iewDispatchedInsts             5219803                       # Number of instructions dispatched to IQ
system.cpu.iew.iewExecLoadInsts                649865                       # Number of load instructions executed
system.cpu.iew.iewExecSquashedInsts             38178                       # Number of squashed instructions skipped in execute
system.cpu.iew.iewExecutedInsts               4866147                       # Number of executed instructions
system.cpu.iew.iewIQFullEvents                   3484                       # Number of times the IQ has become full, causing a stall
system.cpu.iew.iewIdleCycles                        0                       # Number of cycles IEW is idle
system.cpu.iew.iewLSQFullEvents                  8259                       # Number of times the LSQ has become full, causing a stall
system.cpu.iew.iewSquashCycles                  26198                       # Number of cycles IEW is squashing
system.cpu.iew.iewUnblockCycles                 14728                       # Number of cycles IEW is unblocking
system.cpu.iew.lsq.thread0.blockedLoads             0                       # Number of blocked loads due to partial load-store forwarding
system.cpu.iew.lsq.thread0.cacheBlocked           720                       # Number of times an access to memory failed due to the cache being blocked
system.cpu.iew.lsq.thread0.forwLoads            65604                       # Number of loads that had data forwarded from stores
system.cpu.iew.lsq.thread0.ignoredResponses          257                       # Number of memory responses ignored because the instruction is squashed
system.cpu.iew.lsq.thread0.invAddrLoads             0                       # Number of loads ignored due to an invalid address
system.cpu.iew.lsq.thread0.invAddrSwpfs             0                       # Number of software prefetches ignored due to an invalid address
system.cpu.iew.lsq.thread0.memOrderViolation           75                       # Number of memory ordering violations
system.cpu.iew.lsq.thread0.rescheduledLoads            0                       # Number of loads that were rescheduled
system.cpu.iew.lsq.thread0.squashedLoads       112246                       # Number of loads squashed
system.cpu.iew.lsq.thread0.squashedStores        31221                       # Number of stores squashed
system.cpu.iew.memOrderViolationEvents             75                       # Number of memory order violations
system.cpu.iew.predictedNotTakenIncorrect        22814                       # Number of branches that were predicted not taken incorrectly
system.cpu.iew.predictedTakenIncorrect           7987                       # Number of branches that were predicted taken incorrectly
system.cpu.iew.wb_consumers                   6576795                       # num instructions consuming a value
system.cpu.iew.wb_count                       4844341                       # cumulative count of insts written-back
system.cpu.iew.wb_fanout                     0.570365                       # average fanout of values written-back
system.cpu.iew.wb_producers                   3751175                       # num instructions producing a value
system.cpu.iew.wb_rate                       1.503876                       # insts written-back per cycle
system.cpu.iew.wb_sent                        4850944                       # cumulative count of insts sent to commit
system.cpu.int_regfile_reads                  7445453                       # number of integer regfile reads
system.cpu.int_regfile_writes                 4082638                       # number of integer regfile writes
system.cpu.ipc                               0.746109                       # IPC: Instructions Per Cycle
system.cpu.ipc_total                         0.746109                       # IPC: Total IPC of All Threads
system.cpu.iq.FU_type_0::No_OpClass             31821      0.65%      0.65% # Type of FU issued
system.cpu.iq.FU_type_0::IntAlu               3832910     78.15%     78.80% # Type of FU issued
system.cpu.iq.FU_type_0::IntMult                   50      0.00%     78.80% # Type of FU issued
system.cpu.iq.FU_type_0::IntDiv                 39627      0.81%     79.61% # Type of FU issued
system.cpu.iq.FU_type_0::FloatAdd                4298      0.09%     79.70% # Type of FU issued
system.cpu.iq.FU_type_0::FloatCmp                   0      0.00%     79.70% # Type of FU issued
system.cpu.iq.FU_type_0::FloatCvt                1290      0.03%     79.73% # Type of FU issued
system.cpu.iq.FU_type_0::FloatMult                  0      0.00%     79.73% # Type of FU issued
system.cpu.iq.FU_type_0::FloatMultAcc               0      0.00%     79.73% # Type of FU issued
system.cpu.iq.FU_type_0::FloatDiv                   0      0.00%     79.73% # Type of FU issued
system.cpu.iq.FU_type_0::FloatMisc                  0      0.00%     79.73% # Type of FU issued
system.cpu.iq.FU_type_0::FloatSqrt                  0      0.00%     79.73% # Type of FU issued
system.cpu.iq.FU_type_0::SimdAdd                 6903      0.14%     79.87% # Type of FU issued
system.cpu.iq.FU_type_0::SimdAddAcc                 0      0.00%     79.87% # Type of FU issued
system.cpu.iq.FU_type_0::SimdAlu                38989      0.79%     80.66% # Type of FU issued
system.cpu.iq.FU_type_0::SimdCmp                   48      0.00%     80.66% # Type of FU issued
system.cpu.iq.FU_type_0::SimdCvt                20314      0.41%     81.08% # Type of FU issued
system.cpu.iq.FU_type_0::SimdMisc               13476      0.27%     81.35% # Type of FU issued
system.cpu.iq.FU_type_0::SimdMult                   0      0.00%     81.35% # Type of FU issued
system.cpu.iq.FU_type_0::SimdMultAcc                0      0.00%     81.35% # Type of FU issued
system.cpu.iq.FU_type_0::SimdShift               2114      0.04%     81.39% # Type of FU issued
system.cpu.iq.FU_type_0::SimdShiftAcc               0      0.00%     81.39% # Type of FU issued
system.cpu.iq.FU_type_0::SimdDiv                    0      0.00%     81.39% # Type of FU issued
system.cpu.iq.FU_type_0::SimdSqrt                   0      0.00%     81.39% # Type of FU issued
system.cpu.iq.FU_type_0::SimdFloatAdd               0      0.00%     81.39% # Type of FU issued
system.cpu.iq.FU_type_0::SimdFloatAlu               0      0.00%     81.39% # Type of FU issued
system.cpu.iq.FU_type_0::SimdFloatCmp               0      0.00%     81.39% # Type of FU issued
system.cpu.iq.FU_type_0::SimdFloatCvt               0      0.00%     81.39% # Type of FU issued
system.cpu.iq.FU_type_0::SimdFloatDiv               0      0.00%     81.39% # Type of FU issued
system.cpu.iq.FU_type_0::SimdFloatMisc              0      0.00%     81.39% # Type of FU issued
system.cpu.iq.FU_type_0::SimdFloatMult              0      0.00%     81.39% # Type of FU issued
system.cpu.iq.FU_type_0::SimdFloatMultAcc            0      0.00%     81.39% # Type of FU issued
system.cpu.iq.FU_type_0::SimdFloatSqrt              0      0.00%     81.39% # Type of FU issued
system.cpu.iq.FU_type_0::SimdReduceAdd              0      0.00%     81.39% # Type of FU issued
system.cpu.iq.FU_type_0::SimdReduceAlu              0      0.00%     81.39% # Type of FU issued
system.cpu.iq.FU_type_0::SimdReduceCmp              0      0.00%     81.39% # Type of FU issued
system.cpu.iq.FU_type_0::SimdFloatReduceAdd            0      0.00%     81.39% # Type of FU issued
system.cpu.iq.FU_type_0::SimdFloatReduceCmp            0      0.00%     81.39% # Type of FU issued
system.cpu.iq.FU_type_0::SimdAes                    0      0.00%     81.39% # Type of FU issued
system.cpu.iq.FU_type_0::SimdAesMix                 0      0.00%     81.39% # Type of FU issued
system.cpu.iq.FU_type_0::SimdSha1Hash               0      0.00%     81.39% # Type of FU issued
system.cpu.iq.FU_type_0::SimdSha1Hash2              0      0.00%     81.39% # Type of FU issued
system.cpu.iq.FU_type_0::SimdSha256Hash             0      0.00%     81.39% # Type of FU issued
system.cpu.iq.FU_type_0::SimdSha256Hash2            0      0.00%     81.39% # Type of FU issued
system.cpu.iq.FU_type_0::SimdShaSigma2              0      0.00%     81.39% # Type of FU issued
system.cpu.iq.FU_type_0::SimdShaSigma3              0      0.00%     81.39% # Type of FU issued
system.cpu.iq.FU_type_0::SimdPredAlu                0      0.00%     81.39% # Type of FU issued
system.cpu.iq.FU_type_0::MemRead               627895     12.80%     94.20% # Type of FU issued
system.cpu.iq.FU_type_0::MemWrite              239256      4.88%     99.08% # Type of FU issued
system.cpu.iq.FU_type_0::FloatMemRead           31962      0.65%     99.73% # Type of FU issued
system.cpu.iq.FU_type_0::FloatMemWrite          13375      0.27%    100.00% # Type of FU issued
system.cpu.iq.FU_type_0::IprAccess                  0      0.00%    100.00% # Type of FU issued
system.cpu.iq.FU_type_0::InstPrefetch               0      0.00%    100.00% # Type of FU issued
system.cpu.iq.FU_type_0::total                4904328                       # Type of FU issued
system.cpu.iq.fp_alu_accesses                  133753                       # Number of floating point alu accesses
system.cpu.iq.fp_inst_queue_reads              268746                       # Number of floating instruction queue reads
system.cpu.iq.fp_inst_queue_wakeup_accesses       130073                       # Number of floating instruction queue wakeup accesses
system.cpu.iq.fp_inst_queue_writes             175465                       # Number of floating instruction queue writes
system.cpu.iq.fu_busy_cnt                           0                       # FU busy when requested
system.cpu.iq.fu_busy_rate                          0                       # FU busy rate (busy events/executed inst)
system.cpu.iq.fu_full::No_OpClass                   0                       # attempts to use FU when none available
system.cpu.iq.fu_full::IntAlu                       0                       # attempts to use FU when none available
system.cpu.iq.fu_full::IntMult                      0                       # attempts to use FU when none available
system.cpu.iq.fu_full::IntDiv                       0                       # attempts to use FU when none available
system.cpu.iq.fu_full::FloatAdd                     0                       # attempts to use FU when none available
system.cpu.iq.fu_full::FloatCmp                     0                       # attempts to use FU when none available
system.cpu.iq.fu_full::FloatCvt                     0                       # attempts to use FU when none available
system.cpu.iq.fu_full::FloatMult                    0                       # attempts to use FU when none available
system.cpu.iq.fu_full::FloatMultAcc                 0                       # attempts to use FU when none available
system.cpu.iq.fu_full::FloatDiv                     0                       # attempts to use FU when none available
system.cpu.iq.fu_full::FloatMisc                    0                       # attempts to use FU when none available
system.cpu.iq.fu_full::FloatSqrt                    0                       # attempts to use FU when none available
system.cpu.iq.fu_full::SimdAdd                      0                       # attempts to use FU when none available
system.cpu.iq.fu_full::SimdAddAcc                   0                       # attempts to use FU when none available
system.cpu.iq.fu_full::SimdAlu                      0                       # attempts to use FU when none available
system.cpu.iq.fu_full::SimdCmp                      0                       # attempts to use FU when none available
system.cpu.iq.fu_full::SimdCvt                      0                       # attempts to use FU when none available
system.cpu.iq.fu_full::SimdMisc                     0                       # attempts to use FU when none available
system.cpu.iq.fu_full::SimdMult                     0                       # attempts to use FU when none available
system.cpu.iq.fu_full::SimdMultAcc                  0                       # attempts to use FU when none available
system.cpu.iq.fu_full::SimdShift                    0                       # attempts to use FU when none available
system.cpu.iq.fu_full::SimdShiftAcc                 0                       # attempts to use FU when none available
system.cpu.iq.fu_full::SimdDiv                      0                       # attempts to use FU when none available
system.cpu.iq.fu_full::SimdSqrt                     0                       # attempts to use FU when none available
system.cpu.iq.fu_full::SimdFloatAdd                 0                       # attempts to use FU when none available
system.cpu.iq.fu_full::SimdFloatAlu                 0                       # attempts to use FU when none available
system.cpu.iq.fu_full::SimdFloatCmp                 0                       # attempts to use FU when none available
system.cpu.iq.fu_full::SimdFloatCvt                 0                       # attempts to use FU when none available
system.cpu.iq.fu_full::SimdFloatDiv                 0                       # attempts to use FU when none available
system.cpu.iq.fu_full::SimdFloatMisc                0                       # attempts to use FU when none available
system.cpu.iq.fu_full::SimdFloatMult                0                       # attempts to use FU when none available
system.cpu.iq.fu_full::SimdFloatMultAcc             0                       # attempts to use FU when none available
system.cpu.iq.fu_full::SimdFloatSqrt                0                       # attempts to use FU when none available
system.cpu.iq.fu_full::SimdReduceAdd                0                       # attempts to use FU when none available
system.cpu.iq.fu_full::SimdReduceAlu                0                       # attempts to use FU when none available
system.cpu.iq.fu_full::SimdReduceCmp                0                       # attempts to use FU when none available
system.cpu.iq.fu_full::SimdFloatReduceAdd            0                       # attempts to use FU when none available
system.cpu.iq.fu_full::SimdFloatReduceCmp            0                       # attempts to use FU when none available
system.cpu.iq.fu_full::SimdAes                      0                       # attempts to use FU when none available
system.cpu.iq.fu_full::SimdAesMix                   0                       # attempts to use FU when none available
system.cpu.iq.fu_full::SimdSha1Hash                 0                       # attempts to use FU when none available
system.cpu.iq.fu_full::SimdSha1Hash2                0                       # attempts to use FU when none available
system.cpu.iq.fu_full::SimdSha256Hash               0                       # attempts to use FU when none available
system.cpu.iq.fu_full::SimdSha256Hash2              0                       # attempts to use FU when none available
system.cpu.iq.fu_full::SimdShaSigma2                0                       # attempts to use FU when none available
system.cpu.iq.fu_full::SimdShaSigma3                0                       # attempts to use FU when none available
system.cpu.iq.fu_full::SimdPredAlu                  0                       # attempts to use FU when none available
system.cpu.iq.fu_full::MemRead                      0                       # attempts to use FU when none available
system.cpu.iq.fu_full::MemWrite                     0                       # attempts to use FU when none available
system.cpu.iq.fu_full::FloatMemRead                 0                       # attempts to use FU when none available
system.cpu.iq.fu_full::FloatMemWrite                0                       # attempts to use FU when none available
system.cpu.iq.fu_full::IprAccess                    0                       # attempts to use FU when none available
system.cpu.iq.fu_full::InstPrefetch                 0                       # attempts to use FU when none available
system.cpu.iq.int_alu_accesses                4738754                       # Number of integer alu accesses
system.cpu.iq.int_inst_queue_reads           12610028                       # Number of integer instruction queue reads
system.cpu.iq.int_inst_queue_wakeup_accesses      4714268                       # Number of integer instruction queue wakeup accesses
system.cpu.iq.int_inst_queue_writes           5928864                       # Number of integer instruction queue writes
system.cpu.iq.iqInstsAdded                    5218656                       # Number of instructions added to the IQ (excludes non-spec)
system.cpu.iq.iqInstsIssued                   4904328                       # Number of instructions issued
system.cpu.iq.iqNonSpecInstsAdded                1147                       # Number of non-speculative instructions added to the IQ
system.cpu.iq.iqSquashedInstsExamined          884453                       # Number of squashed instructions iterated over during squash; mainly for profiling
system.cpu.iq.iqSquashedInstsIssued             20464                       # Number of squashed instructions issued
system.cpu.iq.iqSquashedNonSpecRemoved            386                       # Number of squashed non-spec instructions that were removed
system.cpu.iq.iqSquashedOperandsExamined      1285113                       # Number of squashed operands that are examined and possibly removed from graph
system.cpu.iq.issued_per_cycle::samples       3049657                       # Number of insts issued each cycle
system.cpu.iq.issued_per_cycle::mean         1.608157                       # Number of insts issued each cycle
system.cpu.iq.issued_per_cycle::stdev        1.659975                       # Number of insts issued each cycle
system.cpu.iq.issued_per_cycle::underflows            0      0.00%      0.00% # Number of insts issued each cycle
system.cpu.iq.issued_per_cycle::0             1374549     45.07%     45.07% # Number of insts issued each cycle
system.cpu.iq.issued_per_cycle::1              221959      7.28%     52.35% # Number of insts issued each cycle
system.cpu.iq.issued_per_cycle::2              364776     11.96%     64.31% # Number of insts issued each cycle
system.cpu.iq.issued_per_cycle::3              400675     13.14%     77.45% # Number of insts issued each cycle
system.cpu.iq.issued_per_cycle::4              687698     22.55%    100.00% # Number of insts issued each cycle
system.cpu.iq.issued_per_cycle::overflows            0      0.00%    100.00% # Number of insts issued each cycle
system.cpu.iq.issued_per_cycle::min_value            0                       # Number of insts issued each cycle
system.cpu.iq.issued_per_cycle::max_value            4                       # Number of insts issued each cycle
system.cpu.iq.issued_per_cycle::total         3049657                       # Number of insts issued each cycle
system.cpu.iq.rate                           1.522498                       # Inst issue rate
system.cpu.iq.vec_alu_accesses                      0                       # Number of vector alu accesses
system.cpu.iq.vec_inst_queue_reads                  0                       # Number of vector instruction queue reads
system.cpu.iq.vec_inst_queue_wakeup_accesses            0                       # Number of vector instruction queue wakeup accesses
system.cpu.iq.vec_inst_queue_writes                 0                       # Number of vector instruction queue writes
system.cpu.itb.rdAccesses                           0                       # TLB accesses on read requests
system.cpu.itb.rdMisses                             0                       # TLB misses on read requests
system.cpu.itb.wrAccesses                      324375                       # TLB accesses on write requests
system.cpu.itb.wrMisses                           390                       # TLB misses on write requests
system.cpu.memDep0.conflictingLoads             11546                       # Number of conflicting loads.
system.cpu.memDep0.conflictingStores             3641                       # Number of conflicting stores.
system.cpu.memDep0.insertedLoads               678841                       # Number of loads inserted to the mem dependence unit.
system.cpu.memDep0.insertedStores              261978                       # Number of stores inserted to the mem dependence unit.
system.cpu.misc_regfile_reads                 1871754                       # number of misc regfile reads
system.cpu.misc_regfile_writes                    702                       # number of misc regfile writes
system.cpu.numCycles                          3221238                       # number of cpu cycles simulated
system.cpu.numWorkItemsCompleted                    0                       # number of work items this cpu completed
system.cpu.numWorkItemsStarted                      0                       # number of work items this cpu started
system.cpu.process.numSyscalls                     58                       # Number of system calls
system.cpu.rename.BlockCycles                  867277                       # Number of cycles rename is blocking
system.cpu.rename.CommittedMaps               5648409                       # Number of HB maps that are committed
system.cpu.rename.FullRegisterEvents               38                       # Number of times there has been no free registers
system.cpu.rename.IQFullEvents                  46637                       # Number of times rename has blocked due to IQ full
system.cpu.rename.IdleCycles                   433115                       # Number of cycles rename is idle
system.cpu.rename.LQFullEvents                  17856                       # Number of times rename has blocked due to LQ full
system.cpu.rename.ROBFullEvents                  6019                       # Number of times rename has blocked due to ROB full
system.cpu.rename.RenameLookups              13954257                       # Number of register rename lookups that rename has made
system.cpu.rename.RenamedInsts                5363906                       # Number of instructions processed by rename
system.cpu.rename.RenamedOperands             7017992                       # Number of destination operands rename has renamed
system.cpu.rename.RunCycles                   1378698                       # Number of cycles rename is running
system.cpu.rename.SQFullEvents                 220544                       # Number of times rename has blocked due to SQ full
system.cpu.rename.SquashCycles                  26198                       # Number of cycles rename is squashing
system.cpu.rename.UnblockCycles                324405                       # Number of cycles rename is unblocking
system.cpu.rename.UndoneMaps                  1369560                       # Number of HB maps that are undone due to squashing
system.cpu.rename.fp_rename_lookups            229737                       # Number of floating rename lookups
system.cpu.rename.int_rename_lookups          8374913                       # Number of integer rename lookups
system.cpu.rename.serializeStallCycles          19964                       # count of cycles rename stalled for serializing inst
system.cpu.rename.serializingInsts                895                       # count of serializing insts renamed
system.cpu.rename.skidInsts                    226569                       # count of insts added to the skid buffer
system.cpu.rename.tempSerializingInsts            948                       # count of temporary serializing insts renamed
system.cpu.rob.rob_reads                      7309247                       # The number of ROB reads
system.cpu.rob.rob_writes                    10682096                       # The number of ROB writes
system.cpu.timesIdled                            1688                       # Number of times that the entire CPU went into an idle state and unscheduled itself
system.l2bus.snoop_filter.hit_multi_requests           13                       # Number of requests hitting in the snoop filter with multiple (>1) holders of the requested data.
system.l2bus.snoop_filter.hit_multi_snoops            1                       # Number of snoops hitting in the snoop filter with multiple (>1) holders of the requested data.
system.l2bus.snoop_filter.hit_single_requests        25300                       # Number of requests hitting in the snoop filter with a single holder of the requested data.
system.l2bus.snoop_filter.hit_single_snoops          600                       # Number of snoops hitting in the snoop filter with a single holder of the requested data.
system.l2bus.snoop_filter.tot_requests          51878                       # Total number of requests made to the snoop filter.
system.l2bus.snoop_filter.tot_snoops              601                       # Total number of snoops made to the snoop filter.
system.l2cache.prefetcher.num_hwpf_issued         2044                       # number of hwpf issued
system.l2cache.prefetcher.pfBufferHit               0                       # number of redundant prefetches already in prefetch queue
system.l2cache.prefetcher.pfIdentified           2045                       # number of prefetch candidates identified
system.l2cache.prefetcher.pfInCache                 0                       # number of redundant prefetches already in cache/mshr dropped
system.l2cache.prefetcher.pfRemovedFull             0                       # number of prefetches dropped due to prefetch queue size
system.l2cache.prefetcher.pfSpanPage              231                       # number of prefetches that crossed the page
system.membus.snoop_filter.hit_multi_requests            0                       # Number of requests hitting in the snoop filter with multiple (>1) holders of the requested data.
system.membus.snoop_filter.hit_multi_snoops            0                       # Number of snoops hitting in the snoop filter with multiple (>1) holders of the requested data.
system.membus.snoop_filter.hit_single_requests        13804                       # Number of requests hitting in the snoop filter with a single holder of the requested data.
system.membus.snoop_filter.hit_single_snoops            0                       # Number of snoops hitting in the snoop filter with a single holder of the requested data.
system.membus.snoop_filter.tot_requests         31740                       # Total number of requests made to the snoop filter.
system.membus.snoop_filter.tot_snoops               0                       # Total number of snoops made to the snoop filter.
system.membus.pwrStateResidencyTicks::UNDEFINED   1288494800                       # Cumulative time (in ticks) in various power states
system.membus.trans_dist::ReadResp              15125                       # Transaction distribution
system.membus.trans_dist::WritebackDirty         1808                       # Transaction distribution
system.membus.trans_dist::CleanEvict            11996                       # Transaction distribution
system.membus.trans_dist::ReadExReq              2811                       # Transaction distribution
system.membus.trans_dist::ReadExResp             2811                       # Transaction distribution
system.membus.trans_dist::ReadSharedReq         15125                       # Transaction distribution
system.membus.pkt_count_system.l2cache.mem_side::system.mem_ctrl.port        49676                       # Packet count per connected master and slave (bytes)
system.membus.pkt_count_system.l2cache.mem_side::total        49676                       # Packet count per connected master and slave (bytes)
system.membus.pkt_count::total                  49676                       # Packet count per connected master and slave (bytes)
system.membus.pkt_size_system.l2cache.mem_side::system.mem_ctrl.port      1263616                       # Cumulative packet size per connected master and slave (bytes)
system.membus.pkt_size_system.l2cache.mem_side::total      1263616                       # Cumulative packet size per connected master and slave (bytes)
system.membus.pkt_size::total                 1263616                       # Cumulative packet size per connected master and slave (bytes)
system.membus.snoops                                0                       # Total snoops (count)
system.membus.snoopTraffic                          0                       # Total snoop traffic (bytes)
system.membus.snoop_fanout::samples             17936                       # Request fanout histogram
system.membus.snoop_fanout::mean                    0                       # Request fanout histogram
system.membus.snoop_fanout::stdev                   0                       # Request fanout histogram
system.membus.snoop_fanout::underflows              0      0.00%      0.00% # Request fanout histogram
system.membus.snoop_fanout::0                   17936    100.00%    100.00% # Request fanout histogram
system.membus.snoop_fanout::1                       0      0.00%    100.00% # Request fanout histogram
system.membus.snoop_fanout::overflows               0      0.00%    100.00% # Request fanout histogram
system.membus.snoop_fanout::min_value               0                       # Request fanout histogram
system.membus.snoop_fanout::max_value               0                       # Request fanout histogram
system.membus.snoop_fanout::total               17936                       # Request fanout histogram
system.membus.reqLayer2.occupancy            15707584                       # Layer occupancy (ticks)
system.membus.reqLayer2.utilization               1.2                       # Layer utilization (%)
system.membus.respLayer0.occupancy           38946416                       # Layer occupancy (ticks)
system.membus.respLayer0.utilization              3.0                       # Layer utilization (%)
system.l2bus.pwrStateResidencyTicks::UNDEFINED   1288494800                       # Cumulative time (in ticks) in various power states
system.l2bus.trans_dist::ReadResp               22970                       # Transaction distribution
system.l2bus.trans_dist::WritebackDirty          9544                       # Transaction distribution
system.l2bus.trans_dist::CleanEvict             29715                       # Transaction distribution
system.l2bus.trans_dist::HardPFReq               2679                       # Transaction distribution
system.l2bus.trans_dist::ReadExReq               3609                       # Transaction distribution
system.l2bus.trans_dist::ReadExResp              3609                       # Transaction distribution
system.l2bus.trans_dist::ReadSharedReq          22970                       # Transaction distribution
system.l2bus.pkt_count_system.cpu.icache.mem_side::system.l2cache.cpu_side        11021                       # Packet count per connected master and slave (bytes)
system.l2bus.pkt_count_system.cpu.dcache.mem_side::system.l2cache.cpu_side        67433                       # Packet count per connected master and slave (bytes)
system.l2bus.pkt_count::total                   78454                       # Packet count per connected master and slave (bytes)
system.l2bus.pkt_size_system.cpu.icache.mem_side::system.l2cache.cpu_side       240448                       # Cumulative packet size per connected master and slave (bytes)
system.l2bus.pkt_size_system.cpu.dcache.mem_side::system.l2cache.cpu_side      1955520                       # Cumulative packet size per connected master and slave (bytes)
system.l2bus.pkt_size::total                  2195968                       # Cumulative packet size per connected master and slave (bytes)
system.l2bus.snoops                             16642                       # Total snoops (count)
system.l2bus.snoopTraffic                      115904                       # Total snoop traffic (bytes)
system.l2bus.snoop_fanout::samples              43218                       # Request fanout histogram
system.l2bus.snoop_fanout::mean              0.014253                       # Request fanout histogram
system.l2bus.snoop_fanout::stdev             0.118730                       # Request fanout histogram
system.l2bus.snoop_fanout::underflows               0      0.00%      0.00% # Request fanout histogram
system.l2bus.snoop_fanout::0                    42603     98.58%     98.58% # Request fanout histogram
system.l2bus.snoop_fanout::1                      614      1.42%    100.00% # Request fanout histogram
system.l2bus.snoop_fanout::2                        1      0.00%    100.00% # Request fanout histogram
system.l2bus.snoop_fanout::overflows                0      0.00%    100.00% # Request fanout histogram
system.l2bus.snoop_fanout::min_value                0                       # Request fanout histogram
system.l2bus.snoop_fanout::max_value                2                       # Request fanout histogram
system.l2bus.snoop_fanout::total                43218                       # Request fanout histogram
system.l2bus.respLayer1.occupancy            27383598                       # Layer occupancy (ticks)
system.l2bus.respLayer1.utilization               2.1                       # Layer utilization (%)
system.l2bus.reqLayer0.occupancy             29325582                       # Layer occupancy (ticks)
system.l2bus.reqLayer0.utilization                2.3                       # Layer utilization (%)
system.l2bus.respLayer0.occupancy             4513596                       # Layer occupancy (ticks)
system.l2bus.respLayer0.utilization               0.4                       # Layer utilization (%)
system.clk_domain.clock                           400                       # Clock period in ticks
system.clk_domain.voltage_domain.voltage            1                       # Voltage in Volts
system.cpu.pwrStateResidencyTicks::ON      1288494800                       # Cumulative time (in ticks) in various power states
system.cpu.icache.pwrStateResidencyTicks::UNDEFINED   1288494800                       # Cumulative time (in ticks) in various power states
system.cpu.icache.demand_hits::.cpu.inst       318629                       # number of demand (read+write) hits
system.cpu.icache.demand_hits::total           318629                       # number of demand (read+write) hits
system.cpu.icache.overall_hits::.cpu.inst       318629                       # number of overall hits
system.cpu.icache.overall_hits::total          318629                       # number of overall hits
system.cpu.icache.demand_misses::.cpu.inst         5622                       # number of demand (read+write) misses
system.cpu.icache.demand_misses::total           5622                       # number of demand (read+write) misses
system.cpu.icache.overall_misses::.cpu.inst         5622                       # number of overall misses
system.cpu.icache.overall_misses::total          5622                       # number of overall misses
system.cpu.icache.demand_miss_latency::.cpu.inst    273603600                       # number of demand (read+write) miss cycles
system.cpu.icache.demand_miss_latency::total    273603600                       # number of demand (read+write) miss cycles
system.cpu.icache.overall_miss_latency::.cpu.inst    273603600                       # number of overall miss cycles
system.cpu.icache.overall_miss_latency::total    273603600                       # number of overall miss cycles
system.cpu.icache.demand_accesses::.cpu.inst       324251                       # number of demand (read+write) accesses
system.cpu.icache.demand_accesses::total       324251                       # number of demand (read+write) accesses
system.cpu.icache.overall_accesses::.cpu.inst       324251                       # number of overall (read+write) accesses
system.cpu.icache.overall_accesses::total       324251                       # number of overall (read+write) accesses
system.cpu.icache.demand_miss_rate::.cpu.inst     0.017338                       # miss rate for demand accesses
system.cpu.icache.demand_miss_rate::total     0.017338                       # miss rate for demand accesses
system.cpu.icache.overall_miss_rate::.cpu.inst     0.017338                       # miss rate for overall accesses
system.cpu.icache.overall_miss_rate::total     0.017338                       # miss rate for overall accesses
system.cpu.icache.demand_avg_miss_latency::.cpu.inst 48666.595518                       # average overall miss latency
system.cpu.icache.demand_avg_miss_latency::total 48666.595518                       # average overall miss latency
system.cpu.icache.overall_avg_miss_latency::.cpu.inst 48666.595518                       # average overall miss latency
system.cpu.icache.overall_avg_miss_latency::total 48666.595518                       # average overall miss latency
system.cpu.icache.blocked_cycles::no_mshrs           79                       # number of cycles access was blocked
system.cpu.icache.blocked_cycles::no_targets            0                       # number of cycles access was blocked
system.cpu.icache.blocked::no_mshrs                 5                       # number of cycles access was blocked
system.cpu.icache.blocked::no_targets               0                       # number of cycles access was blocked
system.cpu.icache.avg_blocked_cycles::no_mshrs    15.800000                       # average number of cycles each access was blocked
system.cpu.icache.avg_blocked_cycles::no_targets          nan                       # average number of cycles each access was blocked
system.cpu.icache.demand_mshr_hits::.cpu.inst         1862                       # number of demand (read+write) MSHR hits
system.cpu.icache.demand_mshr_hits::total         1862                       # number of demand (read+write) MSHR hits
system.cpu.icache.overall_mshr_hits::.cpu.inst         1862                       # number of overall MSHR hits
system.cpu.icache.overall_mshr_hits::total         1862                       # number of overall MSHR hits
system.cpu.icache.demand_mshr_misses::.cpu.inst         3760                       # number of demand (read+write) MSHR misses
system.cpu.icache.demand_mshr_misses::total         3760                       # number of demand (read+write) MSHR misses
system.cpu.icache.overall_mshr_misses::.cpu.inst         3760                       # number of overall MSHR misses
system.cpu.icache.overall_mshr_misses::total         3760                       # number of overall MSHR misses
system.cpu.icache.demand_mshr_miss_latency::.cpu.inst    207568800                       # number of demand (read+write) MSHR miss cycles
system.cpu.icache.demand_mshr_miss_latency::total    207568800                       # number of demand (read+write) MSHR miss cycles
system.cpu.icache.overall_mshr_miss_latency::.cpu.inst    207568800                       # number of overall MSHR miss cycles
system.cpu.icache.overall_mshr_miss_latency::total    207568800                       # number of overall MSHR miss cycles
system.cpu.icache.demand_mshr_miss_rate::.cpu.inst     0.011596                       # mshr miss rate for demand accesses
system.cpu.icache.demand_mshr_miss_rate::total     0.011596                       # mshr miss rate for demand accesses
system.cpu.icache.overall_mshr_miss_rate::.cpu.inst     0.011596                       # mshr miss rate for overall accesses
system.cpu.icache.overall_mshr_miss_rate::total     0.011596                       # mshr miss rate for overall accesses
system.cpu.icache.demand_avg_mshr_miss_latency::.cpu.inst 55204.468085                       # average overall mshr miss latency
system.cpu.icache.demand_avg_mshr_miss_latency::total 55204.468085                       # average overall mshr miss latency
system.cpu.icache.overall_avg_mshr_miss_latency::.cpu.inst 55204.468085                       # average overall mshr miss latency
system.cpu.icache.overall_avg_mshr_miss_latency::total 55204.468085                       # average overall mshr miss latency
system.cpu.icache.replacements                   3504                       # number of replacements
system.cpu.icache.ReadReq_hits::.cpu.inst       318629                       # number of ReadReq hits
system.cpu.icache.ReadReq_hits::total          318629                       # number of ReadReq hits
system.cpu.icache.ReadReq_misses::.cpu.inst         5622                       # number of ReadReq misses
system.cpu.icache.ReadReq_misses::total          5622                       # number of ReadReq misses
system.cpu.icache.ReadReq_miss_latency::.cpu.inst    273603600                       # number of ReadReq miss cycles
system.cpu.icache.ReadReq_miss_latency::total    273603600                       # number of ReadReq miss cycles
system.cpu.icache.ReadReq_accesses::.cpu.inst       324251                       # number of ReadReq accesses(hits+misses)
system.cpu.icache.ReadReq_accesses::total       324251                       # number of ReadReq accesses(hits+misses)
system.cpu.icache.ReadReq_miss_rate::.cpu.inst     0.017338                       # miss rate for ReadReq accesses
system.cpu.icache.ReadReq_miss_rate::total     0.017338                       # miss rate for ReadReq accesses
system.cpu.icache.ReadReq_avg_miss_latency::.cpu.inst 48666.595518                       # average ReadReq miss latency
system.cpu.icache.ReadReq_avg_miss_latency::total 48666.595518                       # average ReadReq miss latency
system.cpu.icache.ReadReq_mshr_hits::.cpu.inst         1862                       # number of ReadReq MSHR hits
system.cpu.icache.ReadReq_mshr_hits::total         1862                       # number of ReadReq MSHR hits
system.cpu.icache.ReadReq_mshr_misses::.cpu.inst         3760                       # number of ReadReq MSHR misses
system.cpu.icache.ReadReq_mshr_misses::total         3760                       # number of ReadReq MSHR misses
system.cpu.icache.ReadReq_mshr_miss_latency::.cpu.inst    207568800                       # number of ReadReq MSHR miss cycles
system.cpu.icache.ReadReq_mshr_miss_latency::total    207568800                       # number of ReadReq MSHR miss cycles
system.cpu.icache.ReadReq_mshr_miss_rate::.cpu.inst     0.011596                       # mshr miss rate for ReadReq accesses
system.cpu.icache.ReadReq_mshr_miss_rate::total     0.011596                       # mshr miss rate for ReadReq accesses
system.cpu.icache.ReadReq_avg_mshr_miss_latency::.cpu.inst 55204.468085                       # average ReadReq mshr miss latency
system.cpu.icache.ReadReq_avg_mshr_miss_latency::total 55204.468085                       # average ReadReq mshr miss latency
system.cpu.icache.prefetcher.pwrStateResidencyTicks::UNDEFINED   1288494800                       # Cumulative time (in ticks) in various power states
system.cpu.icache.tags.pwrStateResidencyTicks::UNDEFINED   1288494800                       # Cumulative time (in ticks) in various power states
system.cpu.icache.tags.tagsinuse           253.841468                       # Cycle average of tags in use
system.cpu.icache.tags.total_refs              285051                       # Total number of references to valid blocks.
system.cpu.icache.tags.sampled_refs              3504                       # Sample count of references to valid blocks.
system.cpu.icache.tags.avg_refs             81.350171                       # Average number of references to valid blocks.
system.cpu.icache.tags.warmup_cycle             66400                       # Cycle when the warmup percentage was hit.
system.cpu.icache.tags.occ_blocks::.cpu.inst   253.841468                       # Average occupied blocks per requestor
system.cpu.icache.tags.occ_percent::.cpu.inst     0.991568                       # Average percentage of cache occupancy
system.cpu.icache.tags.occ_percent::total     0.991568                       # Average percentage of cache occupancy
system.cpu.icache.tags.occ_task_id_blocks::1024          256                       # Occupied blocks per task id
system.cpu.icache.tags.age_task_id_blocks_1024::0          109                       # Occupied blocks per task id
system.cpu.icache.tags.age_task_id_blocks_1024::1           74                       # Occupied blocks per task id
system.cpu.icache.tags.age_task_id_blocks_1024::2           73                       # Occupied blocks per task id
system.cpu.icache.tags.occ_task_id_percent::1024            1                       # Percentage of cache occupancy per task id
system.cpu.icache.tags.tag_accesses            652262                       # Number of tag accesses
system.cpu.icache.tags.data_accesses           652262                       # Number of data accesses
system.cpu.dtb.walker.pwrStateResidencyTicks::UNDEFINED   1288494800                       # Cumulative time (in ticks) in various power states
system.cpu.interrupts.clk_domain.clock           6400                       # Clock period in ticks
system.cpu.itb.walker.pwrStateResidencyTicks::UNDEFINED   1288494800                       # Cumulative time (in ticks) in various power states
system.cpu.dcache.pwrStateResidencyTicks::UNDEFINED   1288494800                       # Cumulative time (in ticks) in various power states
system.cpu.dcache.demand_hits::.cpu.data       771339                       # number of demand (read+write) hits
system.cpu.dcache.demand_hits::total           771339                       # number of demand (read+write) hits
system.cpu.dcache.overall_hits::.cpu.data       771339                       # number of overall hits
system.cpu.dcache.overall_hits::total          771339                       # number of overall hits
system.cpu.dcache.demand_misses::.cpu.data        41680                       # number of demand (read+write) misses
system.cpu.dcache.demand_misses::total          41680                       # number of demand (read+write) misses
system.cpu.dcache.overall_misses::.cpu.data        41680                       # number of overall misses
system.cpu.dcache.overall_misses::total         41680                       # number of overall misses
system.cpu.dcache.demand_miss_latency::.cpu.data   1893125198                       # number of demand (read+write) miss cycles
system.cpu.dcache.demand_miss_latency::total   1893125198                       # number of demand (read+write) miss cycles
system.cpu.dcache.overall_miss_latency::.cpu.data   1893125198                       # number of overall miss cycles
system.cpu.dcache.overall_miss_latency::total   1893125198                       # number of overall miss cycles
system.cpu.dcache.demand_accesses::.cpu.data       813019                       # number of demand (read+write) accesses
system.cpu.dcache.demand_accesses::total       813019                       # number of demand (read+write) accesses
system.cpu.dcache.overall_accesses::.cpu.data       813019                       # number of overall (read+write) accesses
system.cpu.dcache.overall_accesses::total       813019                       # number of overall (read+write) accesses
system.cpu.dcache.demand_miss_rate::.cpu.data     0.051266                       # miss rate for demand accesses
system.cpu.dcache.demand_miss_rate::total     0.051266                       # miss rate for demand accesses
system.cpu.dcache.overall_miss_rate::.cpu.data     0.051266                       # miss rate for overall accesses
system.cpu.dcache.overall_miss_rate::total     0.051266                       # miss rate for overall accesses
system.cpu.dcache.demand_avg_miss_latency::.cpu.data 45420.470202                       # average overall miss latency
system.cpu.dcache.demand_avg_miss_latency::total 45420.470202                       # average overall miss latency
system.cpu.dcache.overall_avg_miss_latency::.cpu.data 45420.470202                       # average overall miss latency
system.cpu.dcache.overall_avg_miss_latency::total 45420.470202                       # average overall miss latency
system.cpu.dcache.blocked_cycles::no_mshrs        32133                       # number of cycles access was blocked
system.cpu.dcache.blocked_cycles::no_targets          250                       # number of cycles access was blocked
system.cpu.dcache.blocked::no_mshrs               875                       # number of cycles access was blocked
system.cpu.dcache.blocked::no_targets               2                       # number of cycles access was blocked
system.cpu.dcache.avg_blocked_cycles::no_mshrs    36.723429                       # average number of cycles each access was blocked
system.cpu.dcache.avg_blocked_cycles::no_targets          125                       # average number of cycles each access was blocked
system.cpu.dcache.unused_prefetches              1880                       # number of HardPF blocks evicted w/o reference
system.cpu.dcache.writebacks::.writebacks         7736                       # number of writebacks
system.cpu.dcache.writebacks::total              7736                       # number of writebacks
system.cpu.dcache.demand_mshr_hits::.cpu.data        26139                       # number of demand (read+write) MSHR hits
system.cpu.dcache.demand_mshr_hits::total        26139                       # number of demand (read+write) MSHR hits
system.cpu.dcache.overall_mshr_hits::.cpu.data        26139                       # number of overall MSHR hits
system.cpu.dcache.overall_mshr_hits::total        26139                       # number of overall MSHR hits
system.cpu.dcache.demand_mshr_misses::.cpu.data        15541                       # number of demand (read+write) MSHR misses
system.cpu.dcache.demand_mshr_misses::total        15541                       # number of demand (read+write) MSHR misses
system.cpu.dcache.overall_mshr_misses::.cpu.data        15541                       # number of overall MSHR misses
system.cpu.dcache.overall_mshr_misses::.cpu.dcache.prefetcher         7278                       # number of overall MSHR misses
system.cpu.dcache.overall_mshr_misses::total        22819                       # number of overall MSHR misses
system.cpu.dcache.demand_mshr_miss_latency::.cpu.data    722593998                       # number of demand (read+write) MSHR miss cycles
system.cpu.dcache.demand_mshr_miss_latency::total    722593998                       # number of demand (read+write) MSHR miss cycles
system.cpu.dcache.overall_mshr_miss_latency::.cpu.data    722593998                       # number of overall MSHR miss cycles
system.cpu.dcache.overall_mshr_miss_latency::.cpu.dcache.prefetcher    316111303                       # number of overall MSHR miss cycles
system.cpu.dcache.overall_mshr_miss_latency::total   1038705301                       # number of overall MSHR miss cycles
system.cpu.dcache.demand_mshr_miss_rate::.cpu.data     0.019115                       # mshr miss rate for demand accesses
system.cpu.dcache.demand_mshr_miss_rate::total     0.019115                       # mshr miss rate for demand accesses
system.cpu.dcache.overall_mshr_miss_rate::.cpu.data     0.019115                       # mshr miss rate for overall accesses
system.cpu.dcache.overall_mshr_miss_rate::.cpu.dcache.prefetcher          inf                       # mshr miss rate for overall accesses
system.cpu.dcache.overall_mshr_miss_rate::total     0.028067                       # mshr miss rate for overall accesses
system.cpu.dcache.demand_avg_mshr_miss_latency::.cpu.data 46495.978251                       # average overall mshr miss latency
system.cpu.dcache.demand_avg_mshr_miss_latency::total 46495.978251                       # average overall mshr miss latency
system.cpu.dcache.overall_avg_mshr_miss_latency::.cpu.data 46495.978251                       # average overall mshr miss latency
system.cpu.dcache.overall_avg_mshr_miss_latency::.cpu.dcache.prefetcher 43433.814647                       # average overall mshr miss latency
system.cpu.dcache.overall_avg_mshr_miss_latency::total 45519.317279                       # average overall mshr miss latency
system.cpu.dcache.replacements                  21795                       # number of replacements
system.cpu.dcache.ReadReq_hits::.cpu.data       544306                       # number of ReadReq hits
system.cpu.dcache.ReadReq_hits::total          544306                       # number of ReadReq hits
system.cpu.dcache.ReadReq_misses::.cpu.data        37951                       # number of ReadReq misses
system.cpu.dcache.ReadReq_misses::total         37951                       # number of ReadReq misses
system.cpu.dcache.ReadReq_miss_latency::.cpu.data   1678731200                       # number of ReadReq miss cycles
system.cpu.dcache.ReadReq_miss_latency::total   1678731200                       # number of ReadReq miss cycles
system.cpu.dcache.ReadReq_accesses::.cpu.data       582257                       # number of ReadReq accesses(hits+misses)
system.cpu.dcache.ReadReq_accesses::total       582257                       # number of ReadReq accesses(hits+misses)
system.cpu.dcache.ReadReq_miss_rate::.cpu.data     0.065179                       # miss rate for ReadReq accesses
system.cpu.dcache.ReadReq_miss_rate::total     0.065179                       # miss rate for ReadReq accesses
system.cpu.dcache.ReadReq_avg_miss_latency::.cpu.data 44234.175648                       # average ReadReq miss latency
system.cpu.dcache.ReadReq_avg_miss_latency::total 44234.175648                       # average ReadReq miss latency
system.cpu.dcache.ReadReq_mshr_hits::.cpu.data        26018                       # number of ReadReq MSHR hits
system.cpu.dcache.ReadReq_mshr_hits::total        26018                       # number of ReadReq MSHR hits
system.cpu.dcache.ReadReq_mshr_misses::.cpu.data        11933                       # number of ReadReq MSHR misses
system.cpu.dcache.ReadReq_mshr_misses::total        11933                       # number of ReadReq MSHR misses
system.cpu.dcache.ReadReq_mshr_miss_latency::.cpu.data    515282000                       # number of ReadReq MSHR miss cycles
system.cpu.dcache.ReadReq_mshr_miss_latency::total    515282000                       # number of ReadReq MSHR miss cycles
system.cpu.dcache.ReadReq_mshr_miss_rate::.cpu.data     0.020494                       # mshr miss rate for ReadReq accesses
system.cpu.dcache.ReadReq_mshr_miss_rate::total     0.020494                       # mshr miss rate for ReadReq accesses
system.cpu.dcache.ReadReq_avg_mshr_miss_latency::.cpu.data 43181.262046                       # average ReadReq mshr miss latency
system.cpu.dcache.ReadReq_avg_mshr_miss_latency::total 43181.262046                       # average ReadReq mshr miss latency
system.cpu.dcache.WriteReq_hits::.cpu.data       227033                       # number of WriteReq hits
system.cpu.dcache.WriteReq_hits::total         227033                       # number of WriteReq hits
system.cpu.dcache.WriteReq_misses::.cpu.data         3729                       # number of WriteReq misses
system.cpu.dcache.WriteReq_misses::total         3729                       # number of WriteReq misses
system.cpu.dcache.WriteReq_miss_latency::.cpu.data    214393998                       # number of WriteReq miss cycles
system.cpu.dcache.WriteReq_miss_latency::total    214393998                       # number of WriteReq miss cycles
system.cpu.dcache.WriteReq_accesses::.cpu.data       230762                       # number of WriteReq accesses(hits+misses)
system.cpu.dcache.WriteReq_accesses::total       230762                       # number of WriteReq accesses(hits+misses)
system.cpu.dcache.WriteReq_miss_rate::.cpu.data     0.016160                       # miss rate for WriteReq accesses
system.cpu.dcache.WriteReq_miss_rate::total     0.016160                       # miss rate for WriteReq accesses
system.cpu.dcache.WriteReq_avg_miss_latency::.cpu.data 57493.697506                       # average WriteReq miss latency
system.cpu.dcache.WriteReq_avg_miss_latency::total 57493.697506                       # average WriteReq miss latency
system.cpu.dcache.WriteReq_mshr_hits::.cpu.data          121                       # number of WriteReq MSHR hits
system.cpu.dcache.WriteReq_mshr_hits::total          121                       # number of WriteReq MSHR hits
system.cpu.dcache.WriteReq_mshr_misses::.cpu.data         3608                       # number of WriteReq MSHR misses
system.cpu.dcache.WriteReq_mshr_misses::total         3608                       # number of WriteReq MSHR misses
system.cpu.dcache.WriteReq_mshr_miss_latency::.cpu.data    207311998                       # number of WriteReq MSHR miss cycles
system.cpu.dcache.WriteReq_mshr_miss_latency::total    207311998                       # number of WriteReq MSHR miss cycles
[...]
system.l2cache.overall_avg_mshr_miss_latency::total 64043.799151                       # average overall mshr miss latency
system.l2cache.replacements                       720                       # number of replacements
system.l2cache.WritebackDirty_hits::.writebacks         1170                       # number of WritebackDirty hits
system.l2cache.WritebackDirty_hits::total         1170                       # number of WritebackDirty hits
system.l2cache.WritebackDirty_accesses::.writebacks         1170                       # number of WritebackDirty accesses(hits+misses)
system.l2cache.WritebackDirty_accesses::total         1170                       # number of WritebackDirty accesses(hits+misses)
system.l2cache.CleanEvict_mshr_misses::.writebacks           33                       # number of CleanEvict MSHR misses
system.l2cache.CleanEvict_mshr_misses::total           33                       # number of CleanEvict MSHR misses
system.l2cache.CleanEvict_mshr_miss_rate::.writebacks          inf                       # mshr miss rate for CleanEvict accesses
system.l2cache.CleanEvict_mshr_miss_rate::total          inf                       # mshr miss rate for CleanEvict accesses
system.l2cache.HardPFReq_mshr_misses::.l2cache.prefetcher          112                       # number of HardPFReq MSHR misses
system.l2cache.HardPFReq_mshr_misses::total          112                       # number of HardPFReq MSHR misses
system.l2cache.HardPFReq_mshr_miss_latency::.l2cache.prefetcher      8119834                       # number of HardPFReq MSHR miss cycles
system.l2cache.HardPFReq_mshr_miss_latency::total      8119834                       # number of HardPFReq MSHR miss cycles
system.l2cache.HardPFReq_mshr_miss_rate::.l2cache.prefetcher          inf                       # mshr miss rate for HardPFReq accesses
system.l2cache.HardPFReq_mshr_miss_rate::total          inf                       # mshr miss rate for HardPFReq accesses
system.l2cache.HardPFReq_avg_mshr_miss_latency::.l2cache.prefetcher 72498.517857                       # average HardPFReq mshr miss latency
system.l2cache.HardPFReq_avg_mshr_miss_latency::total 72498.517857                       # average HardPFReq mshr miss latency
system.l2cache.UpgradeReq_misses::.cpu.data            1                       # number of UpgradeReq misses
system.l2cache.UpgradeReq_misses::total             1                       # number of UpgradeReq misses
system.l2cache.UpgradeReq_miss_latency::.cpu.data        19600                       # number of UpgradeReq miss cycles
system.l2cache.UpgradeReq_miss_latency::total        19600                       # number of UpgradeReq miss cycles
system.l2cache.UpgradeReq_accesses::.cpu.data            1                       # number of UpgradeReq accesses(hits+misses)
system.l2cache.UpgradeReq_accesses::total            1                       # number of UpgradeReq accesses(hits+misses)
system.l2cache.UpgradeReq_miss_rate::.cpu.data            1                       # miss rate for UpgradeReq accesses
system.l2cache.UpgradeReq_miss_rate::total            1                       # miss rate for UpgradeReq accesses
system.l2cache.UpgradeReq_avg_miss_latency::.cpu.data        19600                       # average UpgradeReq miss latency
system.l2cache.UpgradeReq_avg_miss_latency::total        19600                       # average UpgradeReq miss latency
system.l2cache.UpgradeReq_mshr_misses::.cpu.data            1                       # number of UpgradeReq MSHR misses
system.l2cache.UpgradeReq_mshr_misses::total            1                       # number of UpgradeReq MSHR misses
system.l2cache.UpgradeReq_mshr_miss_latency::.cpu.data        11600                       # number of UpgradeReq MSHR miss cycles
system.l2cache.UpgradeReq_mshr_miss_latency::total        11600                       # number of UpgradeReq MSHR miss cycles
system.l2cache.UpgradeReq_mshr_miss_rate::.cpu.data            1                       # mshr miss rate for UpgradeReq accesses
system.l2cache.UpgradeReq_mshr_miss_rate::total            1                       # mshr miss rate for UpgradeReq accesses
system.l2cache.UpgradeReq_avg_mshr_miss_latency::.cpu.data        11600                       # average UpgradeReq mshr miss latency
system.l2cache.UpgradeReq_avg_mshr_miss_latency::total        11600                       # average UpgradeReq mshr miss latency
system.l2cache.ReadExReq_hits::.cpu.data           22                       # number of ReadExReq hits
system.l2cache.ReadExReq_hits::total               22                       # number of ReadExReq hits
system.l2cache.ReadExReq_misses::.cpu.data            7                       # number of ReadExReq misses
system.l2cache.ReadExReq_misses::total              7                       # number of ReadExReq misses
system.l2cache.ReadExReq_miss_latency::.cpu.data       523200                       # number of ReadExReq miss cycles
system.l2cache.ReadExReq_miss_latency::total       523200                       # number of ReadExReq miss cycles
system.l2cache.ReadExReq_accesses::.cpu.data           29                       # number of ReadExReq accesses(hits+misses)
system.l2cache.ReadExReq_accesses::total           29                       # number of ReadExReq accesses(hits+misses)
system.l2cache.ReadExReq_miss_rate::.cpu.data     0.241379                       # miss rate for ReadExReq accesses
system.l2cache.ReadExReq_miss_rate::total     0.241379                       # miss rate for ReadExReq accesses
system.l2cache.ReadExReq_avg_miss_latency::.cpu.data 74742.857143                       # average ReadExReq miss latency
system.l2cache.ReadExReq_avg_miss_latency::total 74742.857143                       # average ReadExReq miss latency
system.l2cache.ReadExReq_mshr_misses::.cpu.data            7                       # number of ReadExReq MSHR misses
system.l2cache.ReadExReq_mshr_misses::total            7                       # number of ReadExReq MSHR misses
system.l2cache.ReadExReq_mshr_miss_latency::.cpu.data       467200                       # number of ReadExReq MSHR miss cycles
system.l2cache.ReadExReq_mshr_miss_latency::total       467200                       # number of ReadExReq MSHR miss cycles
system.l2cache.ReadExReq_mshr_miss_rate::.cpu.data     0.241379                       # mshr miss rate for ReadExReq accesses
system.l2cache.ReadExReq_mshr_miss_rate::total     0.241379                       # mshr miss rate for ReadExReq accesses
system.l2cache.ReadExReq_avg_mshr_miss_latency::.cpu.data 66742.857143                       # average ReadExReq mshr miss latency
system.l2cache.ReadExReq_avg_mshr_miss_latency::total 66742.857143                       # average ReadExReq mshr miss latency
system.l2cache.ReadSharedReq_hits::.cpu.inst           89                       # number of ReadSharedReq hits
system.l2cache.ReadSharedReq_hits::.cpu.data          970                       # number of ReadSharedReq hits
system.l2cache.ReadSharedReq_hits::.cpu.dcache.prefetcher          236                       # number of ReadSharedReq hits
system.l2cache.ReadSharedReq_hits::total         1295                       # number of ReadSharedReq hits
system.l2cache.ReadSharedReq_misses::.cpu.inst          179                       # number of ReadSharedReq misses
system.l2cache.ReadSharedReq_misses::.cpu.data          427                       # number of ReadSharedReq misses
system.l2cache.ReadSharedReq_misses::.cpu.dcache.prefetcher           62                       # number of ReadSharedReq misses
system.l2cache.ReadSharedReq_misses::total          668                       # number of ReadSharedReq misses
system.l2cache.ReadSharedReq_miss_latency::.cpu.inst     12165600                       # number of ReadSharedReq miss cycles
system.l2cache.ReadSharedReq_miss_latency::.cpu.data     28333600                       # number of ReadSharedReq miss cycles
system.l2cache.ReadSharedReq_miss_latency::.cpu.dcache.prefetcher      4545932                       # number of ReadSharedReq miss cycles
system.l2cache.ReadSharedReq_miss_latency::total     45045132                       # number of ReadSharedReq miss cycles
system.l2cache.ReadSharedReq_accesses::.cpu.inst          268                       # number of ReadSharedReq accesses(hits+misses)
system.l2cache.ReadSharedReq_accesses::.cpu.data         1397                       # number of ReadSharedReq accesses(hits+misses)
system.l2cache.ReadSharedReq_accesses::.cpu.dcache.prefetcher          298                       # number of ReadSharedReq accesses(hits+misses)
system.l2cache.ReadSharedReq_accesses::total         1963                       # number of ReadSharedReq accesses(hits+misses)
system.l2cache.ReadSharedReq_miss_rate::.cpu.inst     0.667910                       # miss rate for ReadSharedReq accesses
system.l2cache.ReadSharedReq_miss_rate::.cpu.data     0.305655                       # miss rate for ReadSharedReq accesses
system.l2cache.ReadSharedReq_miss_rate::.cpu.dcache.prefetcher     0.208054                       # miss rate for ReadSharedReq accesses
system.l2cache.ReadSharedReq_miss_rate::total     0.340295                       # miss rate for ReadSharedReq accesses
system.l2cache.ReadSharedReq_avg_miss_latency::.cpu.inst 67964.245810                       # average ReadSharedReq miss latency
system.l2cache.ReadSharedReq_avg_miss_latency::.cpu.data 66355.035129                       # average ReadSharedReq miss latency
system.l2cache.ReadSharedReq_avg_miss_latency::.cpu.dcache.prefetcher 73321.483871                       # average ReadSharedReq miss latency
system.l2cache.ReadSharedReq_avg_miss_latency::total 67432.832335                       # average ReadSharedReq miss latency
system.l2cache.ReadSharedReq_mshr_hits::.cpu.data           80                       # number of ReadSharedReq MSHR hits
system.l2cache.ReadSharedReq_mshr_hits::total           80                       # number of ReadSharedReq MSHR hits
system.l2cache.ReadSharedReq_mshr_misses::.cpu.inst          179                       # number of ReadSharedReq MSHR misses
system.l2cache.ReadSharedReq_mshr_misses::.cpu.data          347                       # number of ReadSharedReq MSHR misses
system.l2cache.ReadSharedReq_mshr_misses::.cpu.dcache.prefetcher           62                       # number of ReadSharedReq MSHR misses
system.l2cache.ReadSharedReq_mshr_misses::total          588                       # number of ReadSharedReq MSHR misses
system.l2cache.ReadSharedReq_mshr_miss_latency::.cpu.inst     10733600                       # number of ReadSharedReq MSHR miss cycles
system.l2cache.ReadSharedReq_mshr_miss_latency::.cpu.data     21908400                       # number of ReadSharedReq MSHR miss cycles
system.l2cache.ReadSharedReq_mshr_miss_latency::.cpu.dcache.prefetcher      4049932                       # number of ReadSharedReq MSHR miss cycles
system.l2cache.ReadSharedReq_mshr_miss_latency::total     36691932                       # number of ReadSharedReq MSHR miss cycles
system.l2cache.ReadSharedReq_mshr_miss_rate::.cpu.inst     0.667910                       # mshr miss rate for ReadSharedReq accesses
system.l2cache.ReadSharedReq_mshr_miss_rate::.cpu.data     0.248389                       # mshr miss rate for ReadSharedReq accesses
system.l2cache.ReadSharedReq_mshr_miss_rate::.cpu.dcache.prefetcher     0.208054                       # mshr miss rate for ReadSharedReq accesses
system.l2cache.ReadSharedReq_mshr_miss_rate::total     0.299542                       # mshr miss rate for ReadSharedReq accesses
system.l2cache.ReadSharedReq_avg_mshr_miss_latency::.cpu.inst 59964.245810                       # average ReadSharedReq mshr miss latency
system.l2cache.ReadSharedReq_avg_mshr_miss_latency::.cpu.data 63136.599424                       # average ReadSharedReq mshr miss latency
system.l2cache.ReadSharedReq_avg_mshr_miss_latency::.cpu.dcache.prefetcher 65321.483871                       # average ReadSharedReq mshr miss latency
system.l2cache.ReadSharedReq_avg_mshr_miss_latency::total 62401.244898                       # average ReadSharedReq mshr miss latency
system.l2cache.prefetcher.pwrStateResidencyTicks::UNDEFINED     30117200                       # Cumulative time (in ticks) in various power states
system.l2cache.tags.pwrStateResidencyTicks::UNDEFINED     30117200                       # Cumulative time (in ticks) in various power states
system.l2cache.tags.tagsinuse                    4096                       # Cycle average of tags in use
system.l2cache.tags.total_refs                 149400                       # Total number of references to valid blocks.
system.l2cache.tags.sampled_refs                 4816                       # Sample count of references to valid blocks.
system.l2cache.tags.avg_refs                31.021595                       # Average number of references to valid blocks.
system.l2cache.tags.warmup_cycle                    0                       # Cycle when the warmup percentage was hit.
system.l2cache.tags.occ_blocks::.writebacks    51.737293                       # Average occupied blocks per requestor
system.l2cache.tags.occ_blocks::.cpu.inst   643.965350                       # Average occupied blocks per requestor
system.l2cache.tags.occ_blocks::.cpu.data  1904.666876                       # Average occupied blocks per requestor
system.l2cache.tags.occ_blocks::.cpu.dcache.prefetcher   628.772780                       # Average occupied blocks per requestor
system.l2cache.tags.occ_blocks::.l2cache.prefetcher   866.857701                       # Average occupied blocks per requestor
system.l2cache.tags.occ_percent::.writebacks     0.012631                       # Average percentage of cache occupancy
system.l2cache.tags.occ_percent::.cpu.inst     0.157218                       # Average percentage of cache occupancy
system.l2cache.tags.occ_percent::.cpu.data     0.465007                       # Average percentage of cache occupancy
system.l2cache.tags.occ_percent::.cpu.dcache.prefetcher     0.153509                       # Average percentage of cache occupancy
system.l2cache.tags.occ_percent::.l2cache.prefetcher     0.211635                       # Average percentage of cache occupancy
system.l2cache.tags.occ_percent::total              1                       # Average percentage of cache occupancy
system.l2cache.tags.occ_task_id_blocks::1022         1455                       # Occupied blocks per task id
system.l2cache.tags.occ_task_id_blocks::1024         2641                       # Occupied blocks per task id
system.l2cache.tags.age_task_id_blocks_1022::0           15                       # Occupied blocks per task id
system.l2cache.tags.age_task_id_blocks_1022::1          167                       # Occupied blocks per task id
system.l2cache.tags.age_task_id_blocks_1022::3         1273                       # Occupied blocks per task id
system.l2cache.tags.age_task_id_blocks_1024::0          206                       # Occupied blocks per task id
system.l2cache.tags.age_task_id_blocks_1024::1          333                       # Occupied blocks per task id
system.l2cache.tags.age_task_id_blocks_1024::2            1                       # Occupied blocks per task id
system.l2cache.tags.age_task_id_blocks_1024::3         2101                       # Occupied blocks per task id
system.l2cache.tags.occ_task_id_percent::1022     0.355225                       # Percentage of cache occupancy per task id
system.l2cache.tags.occ_task_id_percent::1024     0.644775                       # Percentage of cache occupancy per task id
system.l2cache.tags.tag_accesses                32592                       # Number of tag accesses
system.l2cache.tags.data_accesses               32592                       # Number of data accesses
system.mem_ctrl.pwrStateResidencyTicks::UNDEFINED     30117200                       # Cumulative time (in ticks) in various power states
system.mem_ctrl.bytes_read::.cpu.inst           11456                       # Number of bytes read from this memory
system.mem_ctrl.bytes_read::.cpu.data           22656                       # Number of bytes read from this memory
system.mem_ctrl.bytes_read::.cpu.dcache.prefetcher         3968                       # Number of bytes read from this memory
system.mem_ctrl.bytes_read::.l2cache.prefetcher         7168                       # Number of bytes read from this memory
system.mem_ctrl.bytes_read::total               45248                       # Number of bytes read from this memory
system.mem_ctrl.bytes_inst_read::.cpu.inst        11456                       # Number of instructions bytes read from this memory
system.mem_ctrl.bytes_inst_read::total          11456                       # Number of instructions bytes read from this memory
system.mem_ctrl.bytes_written::.writebacks        29696                       # Number of bytes written to this memory
system.mem_ctrl.bytes_written::total            29696                       # Number of bytes written to this memory
system.mem_ctrl.num_reads::.cpu.inst              179                       # Number of read requests responded to by this memory
system.mem_ctrl.num_reads::.cpu.data              354                       # Number of read requests responded to by this memory
system.mem_ctrl.num_reads::.cpu.dcache.prefetcher           62                       # Number of read requests responded to by this memory
system.mem_ctrl.num_reads::.l2cache.prefetcher          112                       # Number of read requests responded to by this memory
system.mem_ctrl.num_reads::total                  707                       # Number of read requests responded to by this memory
system.mem_ctrl.num_writes::.writebacks           464                       # Number of write requests responded to by this memory
system.mem_ctrl.num_writes::total                 464                       # Number of write requests responded to by this memory
system.mem_ctrl.bw_read::.cpu.inst          380380646                       # Total read bandwidth from this memory (bytes/s)
system.mem_ctrl.bw_read::.cpu.data          752261166                       # Total read bandwidth from this memory (bytes/s)
system.mem_ctrl.bw_read::.cpu.dcache.prefetcher    131751956                       # Total read bandwidth from this memory (bytes/s)
system.mem_ctrl.bw_read::.l2cache.prefetcher    238003533                       # Total read bandwidth from this memory (bytes/s)
system.mem_ctrl.bw_read::total             1502397301                       # Total read bandwidth from this memory (bytes/s)
system.mem_ctrl.bw_inst_read::.cpu.inst     380380646                       # Instruction read bandwidth from this memory (bytes/s)
system.mem_ctrl.bw_inst_read::total         380380646                       # Instruction read bandwidth from this memory (bytes/s)
system.mem_ctrl.bw_write::.writebacks       986014636                       # Write bandwidth from this memory (bytes/s)
system.mem_ctrl.bw_write::total             986014636                       # Write bandwidth from this memory (bytes/s)
system.mem_ctrl.bw_total::.writebacks       986014636                       # Total bandwidth to/from this memory (bytes/s)
system.mem_ctrl.bw_total::.cpu.inst         380380646                       # Total bandwidth to/from this memory (bytes/s)
system.mem_ctrl.bw_total::.cpu.data         752261166                       # Total bandwidth to/from this memory (bytes/s)
system.mem_ctrl.bw_total::.cpu.dcache.prefetcher    131751956                       # Total bandwidth to/from this memory (bytes/s)
system.mem_ctrl.bw_total::.l2cache.prefetcher    238003533                       # Total bandwidth to/from this memory (bytes/s)
system.mem_ctrl.bw_total::total            2488411937                       # Total bandwidth to/from this memory (bytes/s)

---------- End Simulation Statistics   ----------
