
---------- Begin Simulation Statistics ----------
final_tick                                 1079903200                       # Number of ticks from beginning of simulation (restored from checkpoints and never reset)
host_inst_rate                                 172080                       # Simulator instruction rate (inst/s)
host_mem_usage                                4402808                       # Number of bytes of host memory used
host_op_rate                                   299404                       # Simulator op (including micro ops) rate (op/s)
host_seconds                                    11.83                       # Real time elapsed on the host
host_tick_rate                               91278008                       # Simulator tick rate (ticks/s)
sim_freq                                 1000000000000                       # Frequency of simulated ticks
sim_insts                                     2035851                       # Number of instructions simulated
sim_ops                                       3542217                       # Number of ops (including micro ops) simulated
sim_seconds                                  0.001080                       # Number of seconds simulated
sim_ticks                                  1079903200                       # Number of ticks simulated
system.cpu.branchPred.BTBCorrect                    0                       # Number of correct BTB predictions (this stat may not work properly.
system.cpu.branchPred.BTBHitPct              0.000000                       # BTB Hit Percentage
system.cpu.branchPred.BTBHits                       0                       # Number of BTB hits
system.cpu.branchPred.BTBLookups               430692                       # Number of BTB lookups
system.cpu.branchPred.RASInCorrect                  5                       # Number of incorrect RAS predictions.
system.cpu.branchPred.condIncorrect             24116                       # Number of conditional branches incorrect
system.cpu.branchPred.condPredicted            457972                       # Number of conditional branches predicted
system.cpu.branchPred.indirectHits             235198                       # Number of indirect target hits.
system.cpu.branchPred.indirectLookups          430692                       # Number of indirect predictor lookups.
system.cpu.branchPred.indirectMisses           195494                       # Number of indirect misses.
system.cpu.branchPred.lookups                  484079                       # Number of BP lookups
system.cpu.branchPred.usedRAS                   11248                       # Number of times the RAS was used to get a target.
system.cpu.branchPredindirectMispredicted        12241                       # Number of mispredicted indirect branches.
system.cpu.cc_regfile_reads                   2338045                       # number of cc regfile reads
system.cpu.cc_regfile_writes                  1903532                       # number of cc regfile writes
system.cpu.commit.amos                              0                       # Number of atomic instructions committed
system.cpu.commit.branchMispredicts             24223                       # The number of times a branch was mispredicted
system.cpu.commit.branches                     341319                       # Number of branches committed
system.cpu.commit.bw_lim_events                589157                       # number cycles where commit BW limit reached
system.cpu.commit.commitNonSpecStalls             732                       # The number of times commit has been forced to stall to communicate backwards
system.cpu.commit.commitSquashedInsts          875003                       # The number of squashed insts skipped by commit
system.cpu.commit.committedInsts              2035851                       # Number of instructions committed
system.cpu.commit.committedOps                3542217                       # Number of ops (including micro ops) committed
system.cpu.commit.committed_per_cycle::samples      2310360                       # Number of insts commited each cycle
system.cpu.commit.committed_per_cycle::mean     1.533188                       # Number of insts commited each cycle
system.cpu.commit.committed_per_cycle::stdev     1.725414                       # Number of insts commited each cycle
system.cpu.commit.committed_per_cycle::underflows            0      0.00%      0.00% # Number of insts commited each cycle
system.cpu.commit.committed_per_cycle::0      1156541     50.06%     50.06% # Number of insts commited each cycle
system.cpu.commit.committed_per_cycle::1       171232      7.41%     57.47% # Number of insts commited each cycle
system.cpu.commit.committed_per_cycle::2       165933      7.18%     64.65% # Number of insts commited each cycle
system.cpu.commit.committed_per_cycle::3       227497      9.85%     74.50% # Number of insts commited each cycle
system.cpu.commit.committed_per_cycle::4       589157     25.50%    100.00% # Number of insts commited each cycle
system.cpu.commit.committed_per_cycle::overflows            0      0.00%    100.00% # Number of insts commited each cycle
system.cpu.commit.committed_per_cycle::min_value            0                       # Number of insts commited each cycle
system.cpu.commit.committed_per_cycle::max_value            4                       # Number of insts commited each cycle
system.cpu.commit.committed_per_cycle::total      2310360                       # Number of insts commited each cycle
system.cpu.commit.fp_insts                      84176                       # Number of committed floating point instructions.
system.cpu.commit.function_calls                 9334                       # Number of function calls committed.
system.cpu.commit.int_insts                   3479999                       # Number of committed integer instructions.
system.cpu.commit.loads                        487259                       # Number of loads committed
system.cpu.commit.membars                           1                       # Number of memory barriers committed
system.cpu.commit.op_class_0::No_OpClass        20067      0.57%      0.57% # Class of committed instruction
system.cpu.commit.op_class_0::IntAlu          2781632     78.53%     79.09% # Class of committed instruction
system.cpu.commit.op_class_0::IntMult              27      0.00%     79.10% # Class of committed instruction
system.cpu.commit.op_class_0::IntDiv            36453      1.03%     80.12% # Class of committed instruction
system.cpu.commit.op_class_0::FloatAdd           3625      0.10%     80.23% # Class of committed instruction
system.cpu.commit.op_class_0::FloatCmp              0      0.00%     80.23% # Class of committed instruction
system.cpu.commit.op_class_0::FloatCvt           1200      0.03%     80.26% # Class of committed instruction
system.cpu.commit.op_class_0::FloatMult             0      0.00%     80.26% # Class of committed instruction
system.cpu.commit.op_class_0::FloatMultAcc            0      0.00%     80.26% # Class of committed instruction
system.cpu.commit.op_class_0::FloatDiv              0      0.00%     80.26% # Class of committed instruction
system.cpu.commit.op_class_0::FloatMisc             0      0.00%     80.26% # Class of committed instruction
system.cpu.commit.op_class_0::FloatSqrt             0      0.00%     80.26% # Class of committed instruction
system.cpu.commit.op_class_0::SimdAdd            6208      0.18%     80.44% # Class of committed instruction
system.cpu.commit.op_class_0::SimdAddAcc            0      0.00%     80.44% # Class of committed instruction
system.cpu.commit.op_class_0::SimdAlu           12456      0.35%     80.79% # Class of committed instruction
system.cpu.commit.op_class_0::SimdCmp               0      0.00%     80.79% # Class of committed instruction
system.cpu.commit.op_class_0::SimdCvt           12098      0.34%     81.13% # Class of committed instruction
system.cpu.commit.op_class_0::SimdMisc           7015      0.20%     81.33% # Class of committed instruction
system.cpu.commit.op_class_0::SimdMult              0      0.00%     81.33% # Class of committed instruction
system.cpu.commit.op_class_0::SimdMultAcc            0      0.00%     81.33% # Class of committed instruction
system.cpu.commit.op_class_0::SimdShift          1143      0.03%     81.36% # Class of committed instruction
system.cpu.commit.op_class_0::SimdShiftAcc            0      0.00%     81.36% # Class of committed instruction
system.cpu.commit.op_class_0::SimdDiv               0      0.00%     81.36% # Class of committed instruction
system.cpu.commit.op_class_0::SimdSqrt              0      0.00%     81.36% # Class of committed instruction
system.cpu.commit.op_class_0::SimdFloatAdd         1215      0.03%     81.39% # Class of committed instruction
system.cpu.commit.op_class_0::SimdFloatAlu            0      0.00%     81.39% # Class of committed instruction
system.cpu.commit.op_class_0::SimdFloatCmp            0      0.00%     81.39% # Class of committed instruction
system.cpu.commit.op_class_0::SimdFloatCvt         1792      0.05%     81.44% # Class of committed instruction
system.cpu.commit.op_class_0::SimdFloatDiv            0      0.00%     81.44% # Class of committed instruction
system.cpu.commit.op_class_0::SimdFloatMisc            0      0.00%     81.44% # Class of committed instruction
system.cpu.commit.op_class_0::SimdFloatMult         2048      0.06%     81.50% # Class of committed instruction
system.cpu.commit.op_class_0::SimdFloatMultAcc            0      0.00%     81.50% # Class of committed instruction
system.cpu.commit.op_class_0::SimdFloatSqrt            0      0.00%     81.50% # Class of committed instruction
system.cpu.commit.op_class_0::SimdReduceAdd            0      0.00%     81.50% # Class of committed instruction
system.cpu.commit.op_class_0::SimdReduceAlu            0      0.00%     81.50% # Class of committed instruction
system.cpu.commit.op_class_0::SimdReduceCmp            0      0.00%     81.50% # Class of committed instruction
system.cpu.commit.op_class_0::SimdFloatReduceAdd            0      0.00%     81.50% # Class of committed instruction
system.cpu.commit.op_class_0::SimdFloatReduceCmp            0      0.00%     81.50% # Class of committed instruction
system.cpu.commit.op_class_0::SimdAes               0      0.00%     81.50% # Class of committed instruction
system.cpu.commit.op_class_0::SimdAesMix            0      0.00%     81.50% # Class of committed instruction
system.cpu.commit.op_class_0::SimdSha1Hash            0      0.00%     81.50% # Class of committed instruction
system.cpu.commit.op_class_0::SimdSha1Hash2            0      0.00%     81.50% # Class of committed instruction
system.cpu.commit.op_class_0::SimdSha256Hash            0      0.00%     81.50% # Class of committed instruction
system.cpu.commit.op_class_0::SimdSha256Hash2            0      0.00%     81.50% # Class of committed instruction
system.cpu.commit.op_class_0::SimdShaSigma2            0      0.00%     81.50% # Class of committed instruction
system.cpu.commit.op_class_0::SimdShaSigma3            0      0.00%     81.50% # Class of committed instruction
system.cpu.commit.op_class_0::SimdPredAlu            0      0.00%     81.50% # Class of committed instruction
system.cpu.commit.op_class_0::MemRead          465537     13.14%     94.64% # Class of committed instruction
system.cpu.commit.op_class_0::MemWrite         155910      4.40%     99.05% # Class of committed instruction
system.cpu.commit.op_class_0::FloatMemRead        21722      0.61%     99.66% # Class of committed instruction
system.cpu.commit.op_class_0::FloatMemWrite        12069      0.34%    100.00% # Class of committed instruction
system.cpu.commit.op_class_0::IprAccess             0      0.00%    100.00% # Class of committed instruction
system.cpu.commit.op_class_0::InstPrefetch            0      0.00%    100.00% # Class of committed instruction
system.cpu.commit.op_class_0::total           3542217                       # Class of committed instruction
system.cpu.commit.refs                         655238                       # Number of memory references committed
system.cpu.commit.swp_count                         0                       # Number of s/w prefetches committed
system.cpu.commit.vec_insts                         0                       # Number of committed Vector instructions.
system.cpu.committedInsts                     2035851                       # Number of Instructions Simulated
system.cpu.committedOps                       3542217                       # Number of Ops (including micro ops) Simulated
system.cpu.cpi                               1.326108                       # CPI: Cycles Per Instruction
system.cpu.cpi_total                         1.326108                       # CPI: Total CPI of All Threads
system.cpu.dcache.prefetcher.num_hwpf_issued         7702                       # number of hwpf issued
system.cpu.dcache.prefetcher.pfBufferHit        33000                       # number of redundant prefetches already in prefetch queue
system.cpu.dcache.prefetcher.pfIdentified        47600                       # number of prefetch candidates identified
system.cpu.dcache.prefetcher.pfInCache              0                       # number of redundant prefetches already in cache/mshr dropped
system.cpu.dcache.prefetcher.pfRemovedFull            0                       # number of prefetches dropped due to prefetch queue size
system.cpu.dcache.prefetcher.pfSpanPage          4180                       # number of prefetches that crossed the page
system.cpu.decode.BlockedCycles               1022330                       # Number of cycles decode is blocked
system.cpu.decode.DecodedInsts                4633115                       # Number of instructions handled by decode
system.cpu.decode.IdleCycles                   290100                       # Number of cycles decode is idle
system.cpu.decode.RunCycles                   1126968                       # Number of cycles decode is running
system.cpu.decode.SquashCycles                  24275                       # Number of cycles decode is squashing
system.cpu.decode.UnblockCycles                 85849                       # Number of cycles decode is unblocking
system.cpu.dtb.rdAccesses                      570100                       # TLB accesses on read requests
system.cpu.dtb.rdMisses                          2065                       # TLB misses on read requests
system.cpu.dtb.wrAccesses                      187292                       # TLB accesses on write requests
system.cpu.dtb.wrMisses                           162                       # TLB misses on write requests
system.cpu.fetch.Branches                      484079                       # Number of branches that fetch encountered
system.cpu.fetch.CacheLines                    237475                       # Number of cache lines fetched
system.cpu.fetch.Cycles                       2199403                       # Number of cycles fetch has run and was not squashing or blocked
system.cpu.fetch.IcacheSquashes                  4583                       # Number of outstanding Icache misses that were squashed
system.cpu.fetch.Insts                        2798801                       # Number of instructions fetch has processed
system.cpu.fetch.MiscStallCycles                  131                       # Number of cycles fetch has spent waiting on interrupts, or bad addresses, or out of MSHRs
system.cpu.fetch.PendingQuiesceStallCycles           16                       # Number of stall cycles due to pending quiesce instructions
system.cpu.fetch.PendingTrapStallCycles           733                       # Number of stall cycles due to pending traps
system.cpu.fetch.SquashCycles                   48550                       # Number of cycles fetch has spent squashing
system.cpu.fetch.branchRate                  0.179305                       # Number of branch fetches per cycle
system.cpu.fetch.icacheStallCycles             324964                       # Number of cycles fetch is stalled on an Icache miss
system.cpu.fetch.predictedBranches             246446                       # Number of branches that fetch has predicted taken
system.cpu.fetch.rate                        1.036685                       # Number of inst fetches per cycle
system.cpu.fetch.rateDist::samples            2549522                       # Number of instructions fetched each cycle (Total)
system.cpu.fetch.rateDist::mean              1.925111                       # Number of instructions fetched each cycle (Total)
system.cpu.fetch.rateDist::stdev             1.931363                       # Number of instructions fetched each cycle (Total)
system.cpu.fetch.rateDist::underflows               0      0.00%      0.00% # Number of instructions fetched each cycle (Total)
system.cpu.fetch.rateDist::0                  1220634     47.88%     47.88% # Number of instructions fetched each cycle (Total)
system.cpu.fetch.rateDist::1                    72134      2.83%     50.71% # Number of instructions fetched each cycle (Total)
system.cpu.fetch.rateDist::2                    57928      2.27%     52.98% # Number of instructions fetched each cycle (Total)
system.cpu.fetch.rateDist::3                    75182      2.95%     55.93% # Number of instructions fetched each cycle (Total)
system.cpu.fetch.rateDist::4                  1123644     44.07%    100.00% # Number of instructions fetched each cycle (Total)
system.cpu.fetch.rateDist::overflows                0      0.00%    100.00% # Number of instructions fetched each cycle (Total)
system.cpu.fetch.rateDist::min_value                0                       # Number of instructions fetched each cycle (Total)
system.cpu.fetch.rateDist::max_value                4                       # Number of instructions fetched each cycle (Total)
system.cpu.fetch.rateDist::total              2549522                       # Number of instructions fetched each cycle (Total)
system.cpu.fp_regfile_reads                    137089                       # number of floating regfile reads
system.cpu.fp_regfile_writes                    74957                       # number of floating regfile writes
system.cpu.fuPool.fu_ticks_busy::IntALU(0)    213668000                       # Total ticks fu was busy
system.cpu.fuPool.fu_ticks_busy::IntALU(1)    213667600                       # Total ticks fu was busy
system.cpu.fuPool.fu_ticks_busy::IntALU(2)    213667600                       # Total ticks fu was busy
system.cpu.fuPool.fu_ticks_busy::IntALU(3)    213667600                       # Total ticks fu was busy
system.cpu.fuPool.fu_ticks_busy::IntALU(4)    213667600                       # Total ticks fu was busy
system.cpu.fuPool.fu_ticks_busy::IntALU(5)    213667600                       # Total ticks fu was busy
system.cpu.fuPool.fu_ticks_busy::IntMultDiv(0)      8080800                       # Total ticks fu was busy
system.cpu.fuPool.fu_ticks_busy::IntMultDiv(1)      8080400                       # Total ticks fu was busy
system.cpu.fuPool.fu_ticks_busy::FP_ALU(0)       635600                       # Total ticks fu was busy
system.cpu.fuPool.fu_ticks_busy::FP_ALU(1)       635600                       # Total ticks fu was busy
system.cpu.fuPool.fu_ticks_busy::FP_ALU(2)       635600                       # Total ticks fu was busy
system.cpu.fuPool.fu_ticks_busy::FP_ALU(3)       635600                       # Total ticks fu was busy
system.cpu.fuPool.fu_ticks_busy::FP_MultDiv(0)            0                       # Total ticks fu was busy
system.cpu.fuPool.fu_ticks_busy::FP_MultDiv(1)            0                       # Total ticks fu was busy
system.cpu.fuPool.fu_ticks_busy::SIMD_Unit(0)      5232800                       # Total ticks fu was busy
system.cpu.fuPool.fu_ticks_busy::SIMD_Unit(1)      5197600                       # Total ticks fu was busy
system.cpu.fuPool.fu_ticks_busy::SIMD_Unit(2)      5057200                       # Total ticks fu was busy
system.cpu.fuPool.fu_ticks_busy::SIMD_Unit(3)      5088400                       # Total ticks fu was busy
system.cpu.fuPool.fu_ticks_busy::PredALU(0)            0                       # Total ticks fu was busy
system.cpu.fuPool.fu_ticks_busy::RdWrPort(0)     77261600                       # Total ticks fu was busy
system.cpu.fuPool.fu_ticks_busy::RdWrPort(1)     77228000                       # Total ticks fu was busy
system.cpu.fuPool.fu_ticks_busy::RdWrPort(2)     77189200                       # Total ticks fu was busy
system.cpu.fuPool.fu_ticks_busy::RdWrPort(3)     77189600                       # Total ticks fu was busy
system.cpu.fuPool.fu_ticks_busy::IprPort(0)            0                       # Total ticks fu was busy
system.cpu.fuPool.fu_ticks_busy::total     1630154000                       # Total ticks fu was busy
system.cpu.icache.prefetcher.num_hwpf_issued            0                       # number of hwpf issued
system.cpu.icache.prefetcher.pfBufferHit            0                       # number of redundant prefetches already in prefetch queue
system.cpu.icache.prefetcher.pfIdentified            0                       # number of prefetch candidates identified
system.cpu.icache.prefetcher.pfInCache              0                       # number of redundant prefetches already in cache/mshr dropped
system.cpu.icache.prefetcher.pfRemovedFull            0                       # number of prefetches dropped due to prefetch queue size
system.cpu.icache.prefetcher.pfSpanPage             0                       # number of prefetches that crossed the page
system.cpu.idleCycles                          150237                       # Total number of cycles that the CPU has spent unscheduled due to idling
system.cpu.iew.branchMispredicts                28619                       # Number of branch mispredicts detected at execute
system.cpu.iew.exec_branches                   370983                       # Number of branches executed
system.cpu.iew.exec_nop                             0                       # number of nop insts executed
system.cpu.iew.exec_rate                     1.506419                       # Inst execution rate
system.cpu.iew.exec_refs                       759127                       # number of memory reference insts executed
system.cpu.iew.exec_stores                     187282                       # Number of stores executed
system.cpu.iew.exec_swp                             0                       # number of swp insts executed
system.cpu.iew.iewBlockCycles                  691072                       # Number of cycles IEW is blocking
system.cpu.iew.iewDispLoadInsts                602386                       # Number of dispatched load instructions
system.cpu.iew.iewDispNonSpecInsts                933                       # Number of dispatched non-speculative instructions
system.cpu.iew.iewDispSquashedInsts               573                       # Number of squashed instructions skipped by dispatch
system.cpu.iew.iewDispStoreInsts               197718                       # Number of dispatched store instructions
system.cpu.iew.iewDispatchedInsts             4417161                       # Number of instructions dispatched to IQ
system.cpu.iew.iewExecLoadInsts                571845                       # Number of load instructions executed
system.cpu.iew.iewExecSquashedInsts             34444                       # Number of squashed instructions skipped in execute
system.cpu.iew.iewExecutedInsts               4066968                       # Number of executed instructions
system.cpu.iew.iewIQFullEvents                   3279                       # Number of times the IQ has become full, causing a stall
system.cpu.iew.iewIdleCycles                        0                       # Number of cycles IEW is idle
system.cpu.iew.iewLSQFullEvents                  8938                       # Number of times the LSQ has become full, causing a stall
system.cpu.iew.iewSquashCycles                  24275                       # Number of cycles IEW is squashing
system.cpu.iew.iewUnblockCycles                 15030                       # Number of cycles IEW is unblocking
system.cpu.iew.lsq.thread0.blockedLoads             0                       # Number of blocked loads due to partial load-store forwarding
system.cpu.iew.lsq.thread0.cacheBlocked           604                       # Number of times an access to memory failed due to the cache being blocked
system.cpu.iew.lsq.thread0.forwLoads            39404                       # Number of loads that had data forwarded from stores
system.cpu.iew.lsq.thread0.ignoredResponses          223                       # Number of memory responses ignored because the instruction is squashed
system.cpu.iew.lsq.thread0.invAddrLoads             0                       # Number of loads ignored due to an invalid address
system.cpu.iew.lsq.thread0.invAddrSwpfs             0                       # Number of software prefetches ignored due to an invalid address
system.cpu.iew.lsq.thread0.memOrderViolation           64                       # Number of memory ordering violations
system.cpu.iew.lsq.thread0.rescheduledLoads            0                       # Number of loads that were rescheduled
system.cpu.iew.lsq.thread0.squashedLoads       115125                       # Number of loads squashed
system.cpu.iew.lsq.thread0.squashedStores        29738                       # Number of stores squashed
system.cpu.iew.memOrderViolationEvents             64                       # Number of memory order violations
system.cpu.iew.predictedNotTakenIncorrect        20452                       # Number of branches that were predicted not taken incorrectly
system.cpu.iew.predictedTakenIncorrect           8167                       # Number of branches that were predicted taken incorrectly
system.cpu.iew.wb_consumers                   5694419                       # num instructions consuming a value
system.cpu.iew.wb_count                       4044598                       # cumulative count of insts written-back
system.cpu.iew.wb_fanout                     0.567827                       # average fanout of values written-back
system.cpu.iew.wb_producers                   3233445                       # num instructions producing a value
system.cpu.iew.wb_rate                       1.498133                       # insts written-back per cycle
system.cpu.iew.wb_sent                        4051774                       # cumulative count of insts sent to commit
system.cpu.int_regfile_reads                  6276327                       # number of integer regfile reads
system.cpu.int_regfile_writes                 3482775                       # number of integer regfile writes
system.cpu.ipc                               0.754086                       # IPC: Instructions Per Cycle
system.cpu.ipc_total                         0.754086                       # IPC: Total IPC of All Threads
system.cpu.iq.FU_type_0::No_OpClass             26027      0.63%      0.63% # Type of FU issued
system.cpu.iq.FU_type_0::IntAlu               3205016     78.14%     78.78% # Type of FU issued
system.cpu.iq.FU_type_0::IntMult                   50      0.00%     78.78% # Type of FU issued
system.cpu.iq.FU_type_0::IntDiv                 40353      0.98%     79.76% # Type of FU issued
system.cpu.iq.FU_type_0::FloatAdd                5128      0.13%     79.89% # Type of FU issued
system.cpu.iq.FU_type_0::FloatCmp                   0      0.00%     79.89% # Type of FU issued
system.cpu.iq.FU_type_0::FloatCvt                1228      0.03%     79.92% # Type of FU issued
system.cpu.iq.FU_type_0::FloatMult                  0      0.00%     79.92% # Type of FU issued
system.cpu.iq.FU_type_0::FloatMultAcc               0      0.00%     79.92% # Type of FU issued
system.cpu.iq.FU_type_0::FloatDiv                   0      0.00%     79.92% # Type of FU issued
system.cpu.iq.FU_type_0::FloatMisc                  0      0.00%     79.92% # Type of FU issued
system.cpu.iq.FU_type_0::FloatSqrt                  0      0.00%     79.92% # Type of FU issued
system.cpu.iq.FU_type_0::SimdAdd                 6781      0.17%     80.08% # Type of FU issued
system.cpu.iq.FU_type_0::SimdAddAcc                 0      0.00%     80.08% # Type of FU issued
system.cpu.iq.FU_type_0::SimdAlu                16213      0.40%     80.48% # Type of FU issued
system.cpu.iq.FU_type_0::SimdCmp                    0      0.00%     80.48% # Type of FU issued
system.cpu.iq.FU_type_0::SimdCvt                13646      0.33%     80.81% # Type of FU issued
system.cpu.iq.FU_type_0::SimdMisc                7539      0.18%     81.00% # Type of FU issued
system.cpu.iq.FU_type_0::SimdMult                   0      0.00%     81.00% # Type of FU issued
system.cpu.iq.FU_type_0::SimdMultAcc                0      0.00%     81.00% # Type of FU issued
system.cpu.iq.FU_type_0::SimdShift               2117      0.05%     81.05% # Type of FU issued
system.cpu.iq.FU_type_0::SimdShiftAcc               0      0.00%     81.05% # Type of FU issued
system.cpu.iq.FU_type_0::SimdDiv                    0      0.00%     81.05% # Type of FU issued
system.cpu.iq.FU_type_0::SimdSqrt                   0      0.00%     81.05% # Type of FU issued
system.cpu.iq.FU_type_0::SimdFloatAdd            1256      0.03%     81.08% # Type of FU issued
system.cpu.iq.FU_type_0::SimdFloatAlu               0      0.00%     81.08% # Type of FU issued
system.cpu.iq.FU_type_0::SimdFloatCmp               0      0.00%     81.08% # Type of FU issued
system.cpu.iq.FU_type_0::SimdFloatCvt            1808      0.04%     81.12% # Type of FU issued
system.cpu.iq.FU_type_0::SimdFloatDiv               0      0.00%     81.12% # Type of FU issued
system.cpu.iq.FU_type_0::SimdFloatMisc              0      0.00%     81.12% # Type of FU issued
system.cpu.iq.FU_type_0::SimdFloatMult           2080      0.05%     81.17% # Type of FU issued
system.cpu.iq.FU_type_0::SimdFloatMultAcc            0      0.00%     81.17% # Type of FU issued
system.cpu.iq.FU_type_0::SimdFloatSqrt              0      0.00%     81.17% # Type of FU issued
system.cpu.iq.FU_type_0::SimdReduceAdd              0      0.00%     81.17% # Type of FU issued
system.cpu.iq.FU_type_0::SimdReduceAlu              0      0.00%     81.17% # Type of FU issued
system.cpu.iq.FU_type_0::SimdReduceCmp              0      0.00%     81.17% # Type of FU issued
system.cpu.iq.FU_type_0::SimdFloatReduceAdd            0      0.00%     81.17% # Type of FU issued
system.cpu.iq.FU_type_0::SimdFloatReduceCmp            0      0.00%     81.17% # Type of FU issued
system.cpu.iq.FU_type_0::SimdAes                    0      0.00%     81.17% # Type of FU issued
system.cpu.iq.FU_type_0::SimdAesMix                 0      0.00%     81.17% # Type of FU issued
system.cpu.iq.FU_type_0::SimdSha1Hash               0      0.00%     81.17% # Type of FU issued
system.cpu.iq.FU_type_0::SimdSha1Hash2              0      0.00%     81.17% # Type of FU issued
system.cpu.iq.FU_type_0::SimdSha256Hash             0      0.00%     81.17% # Type of FU issued
system.cpu.iq.FU_type_0::SimdSha256Hash2            0      0.00%     81.17% # Type of FU issued
system.cpu.iq.FU_type_0::SimdShaSigma2              0      0.00%     81.17% # Type of FU issued
system.cpu.iq.FU_type_0::SimdShaSigma3              0      0.00%     81.17% # Type of FU issued
system.cpu.iq.FU_type_0::SimdPredAlu                0      0.00%     81.17% # Type of FU issued
system.cpu.iq.FU_type_0::MemRead               554701     13.52%     94.70% # Type of FU issued
system.cpu.iq.FU_type_0::MemWrite              176447      4.30%     99.00% # Type of FU issued
system.cpu.iq.FU_type_0::FloatMemRead           27595      0.67%     99.67% # Type of FU issued
system.cpu.iq.FU_type_0::FloatMemWrite          13430      0.33%    100.00% # Type of FU issued
system.cpu.iq.FU_type_0::IprAccess                  0      0.00%    100.00% # Type of FU issued
system.cpu.iq.FU_type_0::InstPrefetch               0      0.00%    100.00% # Type of FU issued
system.cpu.iq.FU_type_0::total                4101415                       # Type of FU issued
system.cpu.iq.fp_alu_accesses                  100614                       # Number of floating point alu accesses
system.cpu.iq.fp_inst_queue_reads              202510                       # Number of floating instruction queue reads
system.cpu.iq.fp_inst_queue_wakeup_accesses        97158                       # Number of floating instruction queue wakeup accesses
system.cpu.iq.fp_inst_queue_writes             141360                       # Number of floating instruction queue writes
system.cpu.iq.fu_busy_cnt                           0                       # FU busy when requested
system.cpu.iq.fu_busy_rate                          0                       # FU busy rate (busy events/executed inst)
system.cpu.iq.fu_full::No_OpClass                   0                       # attempts to use FU when none available
system.cpu.iq.fu_full::IntAlu                       0                       # attempts to use FU when none available
system.cpu.iq.fu_full::IntMult                      0                       # attempts to use FU when none available
system.cpu.iq.fu_full::IntDiv                       0                       # attempts to use FU when none available
system.cpu.iq.fu_full::FloatAdd                     0                       # attempts to use FU when none available
system.cpu.iq.fu_full::FloatCmp                     0                       # attempts to use FU when none available
system.cpu.iq.fu_full::FloatCvt                     0                       # attempts to use FU when none available
system.cpu.iq.fu_full::FloatMult                    0                       # attempts to use FU when none available
system.cpu.iq.fu_full::FloatMultAcc                 0                       # attempts to use FU when none available
system.cpu.iq.fu_full::FloatDiv                     0                       # attempts to use FU when none available
system.cpu.iq.fu_full::FloatMisc                    0                       # attempts to use FU when none available
system.cpu.iq.fu_full::FloatSqrt                    0                       # attempts to use FU when none available
system.cpu.iq.fu_full::SimdAdd                      0                       # attempts to use FU when none available
system.cpu.iq.fu_full::SimdAddAcc                   0                       # attempts to use FU when none available
system.cpu.iq.fu_full::SimdAlu                      0                       # attempts to use FU when none available
system.cpu.iq.fu_full::SimdCmp                      0                       # attempts to use FU when none available
system.cpu.iq.fu_full::SimdCvt                      0                       # attempts to use FU when none available
system.cpu.iq.fu_full::SimdMisc                     0                       # attempts to use FU when none available
system.cpu.iq.fu_full::SimdMult                     0                       # attempts to use FU when none available
system.cpu.iq.fu_full::SimdMultAcc                  0                       # attempts to use FU when none available
system.cpu.iq.fu_full::SimdShift                    0                       # attempts to use FU when none available
system.cpu.iq.fu_full::SimdShiftAcc                 0                       # attempts to use FU when none available
system.cpu.iq.fu_full::SimdDiv                      0                       # attempts to use FU when none available
system.cpu.iq.fu_full::SimdSqrt                     0                       # attempts to use FU when none available
system.cpu.iq.fu_full::SimdFloatAdd                 0                       # attempts to use FU when none available
system.cpu.iq.fu_full::SimdFloatAlu                 0                       # attempts to use FU when none available
system.cpu.iq.fu_full::SimdFloatCmp                 0                       # attempts to use FU when none available
system.cpu.iq.fu_full::SimdFloatCvt                 0                       # attempts to use FU when none available
system.cpu.iq.fu_full::SimdFloatDiv                 0                       # attempts to use FU when none available
system.cpu.iq.fu_full::SimdFloatMisc                0                       # attempts to use FU when none available
system.cpu.iq.fu_full::SimdFloatMult                0                       # attempts to use FU when none available
system.cpu.iq.fu_full::SimdFloatMultAcc             0                       # attempts to use FU when none available
system.cpu.iq.fu_full::SimdFloatSqrt                0                       # attempts to use FU when none available
system.cpu.iq.fu_full::SimdReduceAdd                0                       # attempts to use FU when none available
system.cpu.iq.fu_full::SimdReduceAlu                0                       # attempts to use FU when none available
system.cpu.iq.fu_full::SimdReduceCmp                0                       # attempts to use FU when none available
system.cpu.iq.fu_full::SimdFloatReduceAdd            0                       # attempts to use FU when none available
system.cpu.iq.fu_full::SimdFloatReduceCmp            0                       # attempts to use FU when none available
system.cpu.iq.fu_full::SimdAes                      0                       # attempts to use FU when none available
system.cpu.iq.fu_full::SimdAesMix                   0                       # attempts to use FU when none available
system.cpu.iq.fu_full::SimdSha1Hash                 0                       # attempts to use FU when none available
system.cpu.iq.fu_full::SimdSha1Hash2                0                       # attempts to use FU when none available
system.cpu.iq.fu_full::SimdSha256Hash               0                       # attempts to use FU when none available
system.cpu.iq.fu_full::SimdSha256Hash2              0                       # attempts to use FU when none available
system.cpu.iq.fu_full::SimdShaSigma2                0                       # attempts to use FU when none available
system.cpu.iq.fu_full::SimdShaSigma3                0                       # attempts to use FU when none available
system.cpu.iq.fu_full::SimdPredAlu                  0                       # attempts to use FU when none available
system.cpu.iq.fu_full::MemRead                      0                       # attempts to use FU when none available
system.cpu.iq.fu_full::MemWrite                     0                       # attempts to use FU when none available
system.cpu.iq.fu_full::FloatMemRead                 0                       # attempts to use FU when none available
system.cpu.iq.fu_full::FloatMemWrite                0                       # attempts to use FU when none available
system.cpu.iq.fu_full::IprAccess                    0                       # attempts to use FU when none available
system.cpu.iq.fu_full::InstPrefetch                 0                       # attempts to use FU when none available
system.cpu.iq.int_alu_accesses                3974774                       # Number of integer alu accesses
system.cpu.iq.int_inst_queue_reads           10568102                       # Number of integer instruction queue reads
system.cpu.iq.int_inst_queue_wakeup_accesses      3947440                       # Number of integer instruction queue wakeup accesses
system.cpu.iq.int_inst_queue_writes           5150798                       # Number of integer instruction queue writes
system.cpu.iq.iqInstsAdded                    4416036                       # Number of instructions added to the IQ (excludes non-spec)
system.cpu.iq.iqInstsIssued                   4101415                       # Number of instructions issued
system.cpu.iq.iqNonSpecInstsAdded                1125                       # Number of non-speculative instructions added to the IQ
system.cpu.iq.iqSquashedInstsExamined          874933                       # Number of squashed instructions iterated over during squash; mainly for profiling
system.cpu.iq.iqSquashedInstsIssued             18263                       # Number of squashed instructions issued
system.cpu.iq.iqSquashedNonSpecRemoved            393                       # Number of squashed non-spec instructions that were removed
system.cpu.iq.iqSquashedOperandsExamined      1304994                       # Number of squashed operands that are examined and possibly removed from graph
system.cpu.iq.issued_per_cycle::samples       2549522                       # Number of insts issued each cycle
system.cpu.iq.issued_per_cycle::mean         1.608700                       # Number of insts issued each cycle
system.cpu.iq.issued_per_cycle::stdev        1.671177                       # Number of insts issued each cycle
system.cpu.iq.issued_per_cycle::underflows            0      0.00%      0.00% # Number of insts issued each cycle
system.cpu.iq.issued_per_cycle::0             1167304     45.79%     45.79% # Number of insts issued each cycle
system.cpu.iq.issued_per_cycle::1              167509      6.57%     52.36% # Number of insts issued each cycle
system.cpu.iq.issued_per_cycle::2              294992     11.57%     63.93% # Number of insts issued each cycle
system.cpu.iq.issued_per_cycle::3              334946     13.14%     77.06% # Number of insts issued each cycle
system.cpu.iq.issued_per_cycle::4              584771     22.94%    100.00% # Number of insts issued each cycle
system.cpu.iq.issued_per_cycle::overflows            0      0.00%    100.00% # Number of insts issued each cycle
system.cpu.iq.issued_per_cycle::min_value            0                       # Number of insts issued each cycle
system.cpu.iq.issued_per_cycle::max_value            4                       # Number of insts issued each cycle
system.cpu.iq.issued_per_cycle::total         2549522                       # Number of insts issued each cycle
system.cpu.iq.rate                           1.519178                       # Inst issue rate
system.cpu.iq.vec_alu_accesses                      0                       # Number of vector alu accesses
system.cpu.iq.vec_inst_queue_reads                  0                       # Number of vector instruction queue reads
system.cpu.iq.vec_inst_queue_wakeup_accesses            0                       # Number of vector instruction queue wakeup accesses
system.cpu.iq.vec_inst_queue_writes                 0                       # Number of vector instruction queue writes
system.cpu.itb.rdAccesses                           0                       # TLB accesses on read requests
system.cpu.itb.rdMisses                             0                       # TLB misses on read requests
system.cpu.itb.wrAccesses                      237598                       # TLB accesses on write requests
system.cpu.itb.wrMisses                           360                       # TLB misses on write requests
system.cpu.memDep0.conflictingLoads              6779                       # Number of conflicting loads.
system.cpu.memDep0.conflictingStores             1476                       # Number of conflicting stores.
system.cpu.memDep0.insertedLoads               602386                       # Number of loads inserted to the mem dependence unit.
system.cpu.memDep0.insertedStores              197718                       # Number of stores inserted to the mem dependence unit.
system.cpu.misc_regfile_reads                 1538877                       # number of misc regfile reads
system.cpu.misc_regfile_writes                    675                       # number of misc regfile writes
system.cpu.numCycles                          2699759                       # number of cpu cycles simulated
system.cpu.numWorkItemsCompleted                    0                       # number of work items this cpu completed
system.cpu.numWorkItemsStarted                      0                       # number of work items this cpu started
system.cpu.process.numSyscalls                     56                       # Number of system calls
system.cpu.rename.BlockCycles                  840173                       # Number of cycles rename is blocking
system.cpu.rename.CommittedMaps               4845659                       # Number of HB maps that are committed
system.cpu.rename.FullRegisterEvents               24                       # Number of times there has been no free registers
system.cpu.rename.IQFullEvents                  43186                       # Number of times rename has blocked due to IQ full
system.cpu.rename.IdleCycles                   339004                       # Number of cycles rename is idle
system.cpu.rename.LQFullEvents                  15205                       # Number of times rename has blocked due to LQ full
system.cpu.rename.ROBFullEvents                  5207                       # Number of times rename has blocked due to ROB full
system.cpu.rename.RenameLookups              11908341                       # Number of register rename lookups that rename has made
system.cpu.rename.RenamedInsts                4558156                       # Number of instructions processed by rename
system.cpu.rename.RenamedOperands             6222450                       # Number of destination operands rename has renamed
system.cpu.rename.RunCycles                   1155896                       # Number of cycles rename is running
system.cpu.rename.SQFullEvents                  76491                       # Number of times rename has blocked due to SQ full
system.cpu.rename.SquashCycles                  24275                       # Number of cycles rename is squashing
system.cpu.rename.UnblockCycles                170915                       # Number of cycles rename is unblocking
system.cpu.rename.UndoneMaps                  1376768                       # Number of HB maps that are undone due to squashing
system.cpu.rename.fp_rename_lookups            171447                       # Number of floating rename lookups
system.cpu.rename.int_rename_lookups          7209072                       # Number of integer rename lookups
system.cpu.rename.serializeStallCycles          19259                       # count of cycles rename stalled for serializing inst
system.cpu.rename.serializingInsts                868                       # count of serializing insts renamed
system.cpu.rename.skidInsts                    197888                       # count of insts added to the skid buffer
system.cpu.rename.tempSerializingInsts            917                       # count of temporary serializing insts renamed
system.cpu.rob.rob_reads                      6138423                       # The number of ROB reads
system.cpu.rob.rob_writes                     9074512                       # The number of ROB writes
system.cpu.timesIdled                            1510                       # Number of times that the entire CPU went into an idle state and unscheduled itself
system.l2bus.snoop_filter.hit_multi_requests            9                       # Number of requests hitting in the snoop filter with multiple (>1) holders of the requested data.
system.l2bus.snoop_filter.hit_multi_snoops            0                       # Number of snoops hitting in the snoop filter with multiple (>1) holders of the requested data.
system.l2bus.snoop_filter.hit_single_requests        18050                       # Number of requests hitting in the snoop filter with a single holder of the requested data.
system.l2bus.snoop_filter.hit_single_snoops          429                       # Number of snoops hitting in the snoop filter with a single holder of the requested data.
system.l2bus.snoop_filter.tot_requests          37380                       # Total number of requests made to the snoop filter.
system.l2bus.snoop_filter.tot_snoops              429                       # Total number of snoops made to the snoop filter.
system.l2cache.prefetcher.num_hwpf_issued          627                       # number of hwpf issued
system.l2cache.prefetcher.pfBufferHit               0                       # number of redundant prefetches already in prefetch queue
system.l2cache.prefetcher.pfIdentified            627                       # number of prefetch candidates identified
system.l2cache.prefetcher.pfInCache                 0                       # number of redundant prefetches already in cache/mshr dropped
system.l2cache.prefetcher.pfRemovedFull             0                       # number of prefetches dropped due to prefetch queue size
system.l2cache.prefetcher.pfSpanPage              113                       # number of prefetches that crossed the page
system.membus.snoop_filter.hit_multi_requests            0                       # Number of requests hitting in the snoop filter with multiple (>1) holders of the requested data.
system.membus.snoop_filter.hit_multi_snoops            0                       # Number of snoops hitting in the snoop filter with multiple (>1) holders of the requested data.
system.membus.snoop_filter.hit_single_requests         9212                       # Number of requests hitting in the snoop filter with a single holder of the requested data.
system.membus.snoop_filter.hit_single_snoops            0                       # Number of snoops hitting in the snoop filter with a single holder of the requested data.
system.membus.snoop_filter.tot_requests         22540                       # Total number of requests made to the snoop filter.
system.membus.snoop_filter.tot_snoops               0                       # Total number of snoops made to the snoop filter.
system.membus.pwrStateResidencyTicks::UNDEFINED   1079903200                       # Cumulative time (in ticks) in various power states
system.membus.trans_dist::ReadResp              11980                       # Transaction distribution
system.membus.trans_dist::WritebackDirty         1303                       # Transaction distribution
system.membus.trans_dist::CleanEvict             7909                       # Transaction distribution
system.membus.trans_dist::ReadExReq              1348                       # Transaction distribution
system.membus.trans_dist::ReadExResp             1348                       # Transaction distribution
system.membus.trans_dist::ReadSharedReq         11980                       # Transaction distribution
system.membus.pkt_count_system.l2cache.mem_side::system.mem_ctrl.port        35868                       # Packet count per connected master and slave (bytes)
system.membus.pkt_count_system.l2cache.mem_side::total        35868                       # Packet count per connected master and slave (bytes)
system.membus.pkt_count::total                  35868                       # Packet count per connected master and slave (bytes)
system.membus.pkt_size_system.l2cache.mem_side::system.mem_ctrl.port       936384                       # Cumulative packet size per connected master and slave (bytes)
system.membus.pkt_size_system.l2cache.mem_side::total       936384                       # Cumulative packet size per connected master and slave (bytes)
system.membus.pkt_size::total                  936384                       # Cumulative packet size per connected master and slave (bytes)
system.membus.snoops                                0                       # Total snoops (count)
system.membus.snoopTraffic                          0                       # Total snoop traffic (bytes)
system.membus.snoop_fanout::samples             13328                       # Request fanout histogram
system.membus.snoop_fanout::mean                    0                       # Request fanout histogram
system.membus.snoop_fanout::stdev                   0                       # Request fanout histogram
system.membus.snoop_fanout::underflows              0      0.00%      0.00% # Request fanout histogram
system.membus.snoop_fanout::0                   13328    100.00%    100.00% # Request fanout histogram
system.membus.snoop_fanout::1                       0      0.00%    100.00% # Request fanout histogram
system.membus.snoop_fanout::overflows               0      0.00%    100.00% # Request fanout histogram
system.membus.snoop_fanout::min_value               0                       # Request fanout histogram
system.membus.snoop_fanout::max_value               0                       # Request fanout histogram
system.membus.snoop_fanout::total               13328                       # Request fanout histogram
system.membus.reqLayer2.occupancy            11122090                       # Layer occupancy (ticks)
system.membus.reqLayer2.utilization               1.0                       # Layer utilization (%)
system.membus.respLayer0.occupancy           28927010                       # Layer occupancy (ticks)
system.membus.respLayer0.utilization              2.7                       # Layer utilization (%)
system.l2bus.pwrStateResidencyTicks::UNDEFINED   1079903200                       # Cumulative time (in ticks) in various power states
system.l2bus.trans_dist::ReadResp               17252                       # Transaction distribution
system.l2bus.trans_dist::WritebackDirty          4044                       # Transaction distribution
system.l2bus.trans_dist::CleanEvict             23292                       # Transaction distribution
system.l2bus.trans_dist::HardPFReq                914                       # Transaction distribution
system.l2bus.trans_dist::ReadExReq               2078                       # Transaction distribution
system.l2bus.trans_dist::ReadExResp              2078                       # Transaction distribution
system.l2bus.trans_dist::ReadSharedReq          17252                       # Transaction distribution
system.l2bus.pkt_count_system.cpu.icache.mem_side::system.l2cache.cpu_side         7813                       # Packet count per connected master and slave (bytes)
system.l2bus.pkt_count_system.cpu.dcache.mem_side::system.l2cache.cpu_side        48896                       # Packet count per connected master and slave (bytes)
system.l2bus.pkt_count::total                   56709                       # Packet count per connected master and slave (bytes)
system.l2bus.pkt_size_system.cpu.icache.mem_side::system.l2cache.cpu_side       172096                       # Cumulative packet size per connected master and slave (bytes)
system.l2bus.pkt_size_system.cpu.dcache.mem_side::system.l2cache.cpu_side      1240384                       # Cumulative packet size per connected master and slave (bytes)
system.l2bus.pkt_size::total                  1412480                       # Cumulative packet size per connected master and slave (bytes)
system.l2bus.snoops                             10201                       # Total snoops (count)
system.l2bus.snoopTraffic                       83456                       # Total snoop traffic (bytes)
system.l2bus.snoop_fanout::samples              29530                       # Request fanout histogram
system.l2bus.snoop_fanout::mean              0.014832                       # Request fanout histogram
system.l2bus.snoop_fanout::stdev             0.120884                       # Request fanout histogram
system.l2bus.snoop_fanout::underflows               0      0.00%      0.00% # Request fanout histogram
system.l2bus.snoop_fanout::0                    29092     98.52%     98.52% # Request fanout histogram
system.l2bus.snoop_fanout::1                      438      1.48%    100.00% # Request fanout histogram
system.l2bus.snoop_fanout::2                        0      0.00%    100.00% # Request fanout histogram
system.l2bus.snoop_fanout::overflows                0      0.00%    100.00% # Request fanout histogram
system.l2bus.snoop_fanout::min_value                0                       # Request fanout histogram
system.l2bus.snoop_fanout::max_value                1                       # Request fanout histogram
system.l2bus.snoop_fanout::total                29530                       # Request fanout histogram
system.l2bus.respLayer1.occupancy            19968798                       # Layer occupancy (ticks)
system.l2bus.respLayer1.utilization               1.8                       # Layer utilization (%)
system.l2bus.reqLayer0.occupancy             18498884                       # Layer occupancy (ticks)
system.l2bus.reqLayer0.utilization                1.7                       # Layer utilization (%)
system.l2bus.respLayer0.occupancy             3228399                       # Layer occupancy (ticks)
system.l2bus.respLayer0.utilization               0.3                       # Layer utilization (%)
system.clk_domain.clock                           400                       # Clock period in ticks
system.clk_domain.voltage_domain.voltage            1                       # Voltage in Volts
system.cpu.pwrStateResidencyTicks::ON      1079903200                       # Cumulative time (in ticks) in various power states
system.cpu.icache.pwrStateResidencyTicks::UNDEFINED   1079903200                       # Cumulative time (in ticks) in various power states
system.cpu.icache.demand_hits::.cpu.inst       234130                       # number of demand (read+write) hits
system.cpu.icache.demand_hits::total           234130                       # number of demand (read+write) hits
system.cpu.icache.overall_hits::.cpu.inst       234130                       # number of overall hits
system.cpu.icache.overall_hits::total          234130                       # number of overall hits
system.cpu.icache.demand_misses::.cpu.inst         3344                       # number of demand (read+write) misses
system.cpu.icache.demand_misses::total           3344                       # number of demand (read+write) misses
system.cpu.icache.overall_misses::.cpu.inst         3344                       # number of overall misses
system.cpu.icache.overall_misses::total          3344                       # number of overall misses
system.cpu.icache.demand_miss_latency::.cpu.inst    164506000                       # number of demand (read+write) miss cycles
system.cpu.icache.demand_miss_latency::total    164506000                       # number of demand (read+write) miss cycles
system.cpu.icache.overall_miss_latency::.cpu.inst    164506000                       # number of overall miss cycles
system.cpu.icache.overall_miss_latency::total    164506000                       # number of overall miss cycles
system.cpu.icache.demand_accesses::.cpu.inst       237474                       # number of demand (read+write) accesses
system.cpu.icache.demand_accesses::total       237474                       # number of demand (read+write) accesses
system.cpu.icache.overall_accesses::.cpu.inst       237474                       # number of overall (read+write) accesses
system.cpu.icache.overall_accesses::total       237474                       # number of overall (read+write) accesses
system.cpu.icache.demand_miss_rate::.cpu.inst     0.014082                       # miss rate for demand accesses
system.cpu.icache.demand_miss_rate::total     0.014082                       # miss rate for demand accesses
system.cpu.icache.overall_miss_rate::.cpu.inst     0.014082                       # miss rate for overall accesses
system.cpu.icache.overall_miss_rate::total     0.014082                       # miss rate for overall accesses
system.cpu.icache.demand_avg_miss_latency::.cpu.inst 49194.377990                       # average overall miss latency
system.cpu.icache.demand_avg_miss_latency::total 49194.377990                       # average overall miss latency
system.cpu.icache.overall_avg_miss_latency::.cpu.inst 49194.377990                       # average overall miss latency
system.cpu.icache.overall_avg_miss_latency::total 49194.377990                       # average overall miss latency
system.cpu.icache.blocked_cycles::no_mshrs          127                       # number of cycles access was blocked
system.cpu.icache.blocked_cycles::no_targets            0                       # number of cycles access was blocked
system.cpu.icache.blocked::no_mshrs                 3                       # number of cycles access was blocked
system.cpu.icache.blocked::no_targets               0                       # number of cycles access was blocked
system.cpu.icache.avg_blocked_cycles::no_mshrs    42.333333                       # average number of cycles each access was blocked
system.cpu.icache.avg_blocked_cycles::no_targets          nan                       # average number of cycles each access was blocked
system.cpu.icache.demand_mshr_hits::.cpu.inst          654                       # number of demand (read+write) MSHR hits
system.cpu.icache.demand_mshr_hits::total          654                       # number of demand (read+write) MSHR hits
system.cpu.icache.overall_mshr_hits::.cpu.inst          654                       # number of overall MSHR hits
system.cpu.icache.overall_mshr_hits::total          654                       # number of overall MSHR hits
system.cpu.icache.demand_mshr_misses::.cpu.inst         2690                       # number of demand (read+write) MSHR misses
system.cpu.icache.demand_mshr_misses::total         2690                       # number of demand (read+write) MSHR misses
system.cpu.icache.overall_mshr_misses::.cpu.inst         2690                       # number of overall MSHR misses
system.cpu.icache.overall_mshr_misses::total         2690                       # number of overall MSHR misses
system.cpu.icache.demand_mshr_miss_latency::.cpu.inst    133002400                       # number of demand (read+write) MSHR miss cycles
system.cpu.icache.demand_mshr_miss_latency::total    133002400                       # number of demand (read+write) MSHR miss cycles
system.cpu.icache.overall_mshr_miss_latency::.cpu.inst    133002400                       # number of overall MSHR miss cycles
system.cpu.icache.overall_mshr_miss_latency::total    133002400                       # number of overall MSHR miss cycles
system.cpu.icache.demand_mshr_miss_rate::.cpu.inst     0.011328                       # mshr miss rate for demand accesses
system.cpu.icache.demand_mshr_miss_rate::total     0.011328                       # mshr miss rate for demand accesses
system.cpu.icache.overall_mshr_miss_rate::.cpu.inst     0.011328                       # mshr miss rate for overall accesses
system.cpu.icache.overall_mshr_miss_rate::total     0.011328                       # mshr miss rate for overall accesses
system.cpu.icache.demand_avg_mshr_miss_latency::.cpu.inst 49443.271375                       # average overall mshr miss latency
system.cpu.icache.demand_avg_mshr_miss_latency::total 49443.271375                       # average overall mshr miss latency
system.cpu.icache.overall_avg_mshr_miss_latency::.cpu.inst 49443.271375                       # average overall mshr miss latency
system.cpu.icache.overall_avg_mshr_miss_latency::total 49443.271375                       # average overall mshr miss latency
system.cpu.icache.replacements                   2434                       # number of replacements
system.cpu.icache.ReadReq_hits::.cpu.inst       234130                       # number of ReadReq hits
system.cpu.icache.ReadReq_hits::total          234130                       # number of ReadReq hits
system.cpu.icache.ReadReq_misses::.cpu.inst         3344                       # number of ReadReq misses
system.cpu.icache.ReadReq_misses::total          3344                       # number of ReadReq misses
system.cpu.icache.ReadReq_miss_latency::.cpu.inst    164506000                       # number of ReadReq miss cycles
system.cpu.icache.ReadReq_miss_latency::total    164506000                       # number of ReadReq miss cycles
system.cpu.icache.ReadReq_accesses::.cpu.inst       237474                       # number of ReadReq accesses(hits+misses)
system.cpu.icache.ReadReq_accesses::total       237474                       # number of ReadReq accesses(hits+misses)
system.cpu.icache.ReadReq_miss_rate::.cpu.inst     0.014082                       # miss rate for ReadReq accesses
system.cpu.icache.ReadReq_miss_rate::total     0.014082                       # miss rate for ReadReq accesses
system.cpu.icache.ReadReq_avg_miss_latency::.cpu.inst 49194.377990                       # average ReadReq miss latency
system.cpu.icache.ReadReq_avg_miss_latency::total 49194.377990                       # average ReadReq miss latency
system.cpu.icache.ReadReq_mshr_hits::.cpu.inst          654                       # number of ReadReq MSHR hits
system.cpu.icache.ReadReq_mshr_hits::total          654                       # number of ReadReq MSHR hits
system.cpu.icache.ReadReq_mshr_misses::.cpu.inst         2690                       # number of ReadReq MSHR misses
system.cpu.icache.ReadReq_mshr_misses::total         2690                       # number of ReadReq MSHR misses
system.cpu.icache.ReadReq_mshr_miss_latency::.cpu.inst    133002400                       # number of ReadReq MSHR miss cycles
system.cpu.icache.ReadReq_mshr_miss_latency::total    133002400                       # number of ReadReq MSHR miss cycles
system.cpu.icache.ReadReq_mshr_miss_rate::.cpu.inst     0.011328                       # mshr miss rate for ReadReq accesses
system.cpu.icache.ReadReq_mshr_miss_rate::total     0.011328                       # mshr miss rate for ReadReq accesses
system.cpu.icache.ReadReq_avg_mshr_miss_latency::.cpu.inst 49443.271375                       # average ReadReq mshr miss latency
system.cpu.icache.ReadReq_avg_mshr_miss_latency::total 49443.271375                       # average ReadReq mshr miss latency
system.cpu.icache.prefetcher.pwrStateResidencyTicks::UNDEFINED   1079903200                       # Cumulative time (in ticks) in various power states
system.cpu.icache.tags.pwrStateResidencyTicks::UNDEFINED   1079903200                       # Cumulative time (in ticks) in various power states
system.cpu.icache.tags.tagsinuse           253.455660                       # Cycle average of tags in use
system.cpu.icache.tags.total_refs              211110                       # Total number of references to valid blocks.
system.cpu.icache.tags.sampled_refs              2434                       # Sample count of references to valid blocks.
system.cpu.icache.tags.avg_refs             86.733772                       # Average number of references to valid blocks.
system.cpu.icache.tags.warmup_cycle             66400                       # Cycle when the warmup percentage was hit.
system.cpu.icache.tags.occ_blocks::.cpu.inst   253.455660                       # Average occupied blocks per requestor
system.cpu.icache.tags.occ_percent::.cpu.inst     0.990061                       # Average percentage of cache occupancy
system.cpu.icache.tags.occ_percent::total     0.990061                       # Average percentage of cache occupancy
system.cpu.icache.tags.occ_task_id_blocks::1024          256                       # Occupied blocks per task id
system.cpu.icache.tags.age_task_id_blocks_1024::0          100                       # Occupied blocks per task id
system.cpu.icache.tags.age_task_id_blocks_1024::1          140                       # Occupied blocks per task id
system.cpu.icache.tags.age_task_id_blocks_1024::2           16                       # Occupied blocks per task id
system.cpu.icache.tags.occ_task_id_percent::1024            1                       # Percentage of cache occupancy per task id
system.cpu.icache.tags.tag_accesses            477638                       # Number of tag accesses
system.cpu.icache.tags.data_accesses           477638                       # Number of data accesses
system.cpu.dtb.walker.pwrStateResidencyTicks::UNDEFINED   1079903200                       # Cumulative time (in ticks) in various power states
system.cpu.interrupts.clk_domain.clock           6400                       # Clock period in ticks
system.cpu.itb.walker.pwrStateResidencyTicks::UNDEFINED   1079903200                       # Cumulative time (in ticks) in various power states
system.cpu.dcache.pwrStateResidencyTicks::UNDEFINED   1079903200                       # Cumulative time (in ticks) in various power states
system.cpu.dcache.demand_hits::.cpu.data       662805                       # number of demand (read+write) hits
system.cpu.dcache.demand_hits::total           662805                       # number of demand (read+write) hits
system.cpu.dcache.overall_hits::.cpu.data       662805                       # number of overall hits
system.cpu.dcache.overall_hits::total          662805                       # number of overall hits
system.cpu.dcache.demand_misses::.cpu.data        34719                       # number of demand (read+write) misses
system.cpu.dcache.demand_misses::total          34719                       # number of demand (read+write) misses
system.cpu.dcache.overall_misses::.cpu.data        34719                       # number of overall misses
system.cpu.dcache.overall_misses::total         34719                       # number of overall misses
system.cpu.dcache.demand_miss_latency::.cpu.data   1703889600                       # number of demand (read+write) miss cycles
system.cpu.dcache.demand_miss_latency::total   1703889600                       # number of demand (read+write) miss cycles
system.cpu.dcache.overall_miss_latency::.cpu.data   1703889600                       # number of overall miss cycles
system.cpu.dcache.overall_miss_latency::total   1703889600                       # number of overall miss cycles
system.cpu.dcache.demand_accesses::.cpu.data       697524                       # number of demand (read+write) accesses
system.cpu.dcache.demand_accesses::total       697524                       # number of demand (read+write) accesses
system.cpu.dcache.overall_accesses::.cpu.data       697524                       # number of overall (read+write) accesses
system.cpu.dcache.overall_accesses::total       697524                       # number of overall (read+write) accesses
system.cpu.dcache.demand_miss_rate::.cpu.data     0.049775                       # miss rate for demand accesses
system.cpu.dcache.demand_miss_rate::total     0.049775                       # miss rate for demand accesses
system.cpu.dcache.overall_miss_rate::.cpu.data     0.049775                       # miss rate for overall accesses
system.cpu.dcache.overall_miss_rate::total     0.049775                       # miss rate for overall accesses
system.cpu.dcache.demand_avg_miss_latency::.cpu.data 49076.574786                       # average overall miss latency
system.cpu.dcache.demand_avg_miss_latency::total 49076.574786                       # average overall miss latency
system.cpu.dcache.overall_avg_miss_latency::.cpu.data 49076.574786                       # average overall miss latency
system.cpu.dcache.overall_avg_miss_latency::total 49076.574786                       # average overall miss latency
system.cpu.dcache.blocked_cycles::no_mshrs        30075                       # number of cycles access was blocked
system.cpu.dcache.blocked_cycles::no_targets          442                       # number of cycles access was blocked
system.cpu.dcache.blocked::no_mshrs               733                       # number of cycles access was blocked
system.cpu.dcache.blocked::no_targets               4                       # number of cycles access was blocked
system.cpu.dcache.avg_blocked_cycles::no_mshrs    41.030014                       # average number of cycles each access was blocked
system.cpu.dcache.avg_blocked_cycles::no_targets   110.500000                       # average number of cycles each access was blocked
system.cpu.dcache.unused_prefetches              1636                       # number of HardPF blocks evicted w/o reference
system.cpu.dcache.writebacks::.writebacks         2741                       # number of writebacks
system.cpu.dcache.writebacks::total              2741                       # number of writebacks
system.cpu.dcache.demand_mshr_hits::.cpu.data        22192                       # number of demand (read+write) MSHR hits
system.cpu.dcache.demand_mshr_hits::total        22192                       # number of demand (read+write) MSHR hits
system.cpu.dcache.overall_mshr_hits::.cpu.data        22192                       # number of overall MSHR hits
system.cpu.dcache.overall_mshr_hits::total        22192                       # number of overall MSHR hits
system.cpu.dcache.demand_mshr_misses::.cpu.data        12527                       # number of demand (read+write) MSHR misses
system.cpu.dcache.demand_mshr_misses::total        12527                       # number of demand (read+write) MSHR misses
system.cpu.dcache.overall_mshr_misses::.cpu.data        12527                       # number of overall MSHR misses
system.cpu.dcache.overall_mshr_misses::.cpu.dcache.prefetcher         4113                       # number of overall MSHR misses
system.cpu.dcache.overall_mshr_misses::total        16640                       # number of overall MSHR misses
system.cpu.dcache.demand_mshr_miss_latency::.cpu.data    581420000                       # number of demand (read+write) MSHR miss cycles
system.cpu.dcache.demand_mshr_miss_latency::total    581420000                       # number of demand (read+write) MSHR miss cycles
system.cpu.dcache.overall_mshr_miss_latency::.cpu.data    581420000                       # number of overall MSHR miss cycles
system.cpu.dcache.overall_mshr_miss_latency::.cpu.dcache.prefetcher    241236016                       # number of overall MSHR miss cycles
system.cpu.dcache.overall_mshr_miss_latency::total    822656016                       # number of overall MSHR miss cycles
system.cpu.dcache.demand_mshr_miss_rate::.cpu.data     0.017959                       # mshr miss rate for demand accesses
system.cpu.dcache.demand_mshr_miss_rate::total     0.017959                       # mshr miss rate for demand accesses
system.cpu.dcache.overall_mshr_miss_rate::.cpu.data     0.017959                       # mshr miss rate for overall accesses
system.cpu.dcache.overall_mshr_miss_rate::.cpu.dcache.prefetcher          inf                       # mshr miss rate for overall accesses
system.cpu.dcache.overall_mshr_miss_rate::total     0.023856                       # mshr miss rate for overall accesses
system.cpu.dcache.demand_avg_mshr_miss_latency::.cpu.data 46413.347170                       # average overall mshr miss latency
system.cpu.dcache.demand_avg_mshr_miss_latency::total 46413.347170                       # average overall mshr miss latency
system.cpu.dcache.overall_avg_mshr_miss_latency::.cpu.data 46413.347170                       # average overall mshr miss latency
system.cpu.dcache.overall_avg_mshr_miss_latency::.cpu.dcache.prefetcher 58652.082665                       # average overall mshr miss latency
system.cpu.dcache.overall_avg_mshr_miss_latency::total 49438.462500                       # average overall mshr miss latency
system.cpu.dcache.replacements                  15616                       # number of replacements
system.cpu.dcache.ReadReq_hits::.cpu.data       496927                       # number of ReadReq hits
system.cpu.dcache.ReadReq_hits::total          496927                       # number of ReadReq hits
system.cpu.dcache.ReadReq_misses::.cpu.data        32612                       # number of ReadReq misses
system.cpu.dcache.ReadReq_misses::total         32612                       # number of ReadReq misses
system.cpu.dcache.ReadReq_miss_latency::.cpu.data   1599353600                       # number of ReadReq miss cycles
system.cpu.dcache.ReadReq_miss_latency::total   1599353600                       # number of ReadReq miss cycles
system.cpu.dcache.ReadReq_accesses::.cpu.data       529539                       # number of ReadReq accesses(hits+misses)
system.cpu.dcache.ReadReq_accesses::total       529539                       # number of ReadReq accesses(hits+misses)
system.cpu.dcache.ReadReq_miss_rate::.cpu.data     0.061586                       # miss rate for ReadReq accesses
system.cpu.dcache.ReadReq_miss_rate::total     0.061586                       # miss rate for ReadReq accesses
system.cpu.dcache.ReadReq_avg_miss_latency::.cpu.data 49041.874157                       # average ReadReq miss latency
system.cpu.dcache.ReadReq_avg_miss_latency::total 49041.874157                       # average ReadReq miss latency
system.cpu.dcache.ReadReq_mshr_hits::.cpu.data        22163                       # number of ReadReq MSHR hits
system.cpu.dcache.ReadReq_mshr_hits::total        22163                       # number of ReadReq MSHR hits
system.cpu.dcache.ReadReq_mshr_misses::.cpu.data        10449                       # number of ReadReq MSHR misses
system.cpu.dcache.ReadReq_mshr_misses::total        10449                       # number of ReadReq MSHR misses
system.cpu.dcache.ReadReq_mshr_miss_latency::.cpu.data    479777200                       # number of ReadReq MSHR miss cycles
system.cpu.dcache.ReadReq_mshr_miss_latency::total    479777200                       # number of ReadReq MSHR miss cycles
system.cpu.dcache.ReadReq_mshr_miss_rate::.cpu.data     0.019732                       # mshr miss rate for ReadReq accesses
system.cpu.dcache.ReadReq_mshr_miss_rate::total     0.019732                       # mshr miss rate for ReadReq accesses
system.cpu.dcache.ReadReq_avg_mshr_miss_latency::.cpu.data 45916.087664                       # average ReadReq mshr miss latency
system.cpu.dcache.ReadReq_avg_mshr_miss_latency::total 45916.087664                       # average ReadReq mshr miss latency
system.cpu.dcache.WriteReq_hits::.cpu.data       165878                       # number of WriteReq hits
system.cpu.dcache.WriteReq_hits::total         165878                       # number of WriteReq hits
system.cpu.dcache.WriteReq_misses::.cpu.data         2107                       # number of WriteReq misses
system.cpu.dcache.WriteReq_misses::total         2107                       # number of WriteReq misses
system.cpu.dcache.WriteReq_miss_latency::.cpu.data    104536000                       # number of WriteReq miss cycles
system.cpu.dcache.WriteReq_miss_latency::total    104536000                       # number of WriteReq miss cycles
system.cpu.dcache.WriteReq_accesses::.cpu.data       167985                       # number of WriteReq accesses(hits+misses)
system.cpu.dcache.WriteReq_accesses::total       167985                       # number of WriteReq accesses(hits+misses)
system.cpu.dcache.WriteReq_miss_rate::.cpu.data     0.012543                       # miss rate for WriteReq accesses
system.cpu.dcache.WriteReq_miss_rate::total     0.012543                       # miss rate for WriteReq accesses
system.cpu.dcache.WriteReq_avg_miss_latency::.cpu.data 49613.668723                       # average WriteReq miss latency
system.cpu.dcache.WriteReq_avg_miss_latency::total 49613.668723                       # average WriteReq miss latency
system.cpu.dcache.WriteReq_mshr_hits::.cpu.data           29                       # number of WriteReq MSHR hits
system.cpu.dcache.WriteReq_mshr_hits::total           29                       # number of WriteReq MSHR hits
system.cpu.dcache.WriteReq_mshr_misses::.cpu.data         2078                       # number of WriteReq MSHR misses
system.cpu.dcache.WriteReq_mshr_misses::total         2078                       # number of WriteReq MSHR misses
system.cpu.dcache.WriteReq_mshr_miss_latency::.cpu.data    101642800                       # number of WriteReq MSHR miss cycles
system.cpu.dcache.WriteReq_mshr_miss_latency::total    101642800                       # number of WriteReq MSHR miss cycles
[...]
system.l2cache.demand_mshr_miss_rate::.cpu.dcache.prefetcher     0.660714                       # mshr miss rate for demand accesses
system.l2cache.demand_mshr_miss_rate::total     0.620388                       # mshr miss rate for demand accesses
system.l2cache.overall_mshr_miss_rate::.cpu.inst     0.622034                       # mshr miss rate for overall accesses
system.l2cache.overall_mshr_miss_rate::.cpu.data     0.611979                       # mshr miss rate for overall accesses
system.l2cache.overall_mshr_miss_rate::.cpu.dcache.prefetcher     0.660714                       # mshr miss rate for overall accesses
system.l2cache.overall_mshr_miss_rate::.l2cache.prefetcher          inf                       # mshr miss rate for overall accesses
system.l2cache.overall_mshr_miss_rate::total     0.626214                       # mshr miss rate for overall accesses
system.l2cache.demand_avg_mshr_miss_latency::.cpu.inst 60103.542234                       # average overall mshr miss latency
system.l2cache.demand_avg_mshr_miss_latency::.cpu.data 58415.319149                       # average overall mshr miss latency
system.l2cache.demand_avg_mshr_miss_latency::.cpu.dcache.prefetcher 62345.027027                       # average overall mshr miss latency
system.l2cache.demand_avg_mshr_miss_latency::total 59612.466354                       # average overall mshr miss latency
system.l2cache.overall_avg_mshr_miss_latency::.cpu.inst 60103.542234                       # average overall mshr miss latency
system.l2cache.overall_avg_mshr_miss_latency::.cpu.data 58415.319149                       # average overall mshr miss latency
system.l2cache.overall_avg_mshr_miss_latency::.cpu.dcache.prefetcher 62345.027027                       # average overall mshr miss latency
system.l2cache.overall_avg_mshr_miss_latency::.l2cache.prefetcher 64198.666667                       # average overall mshr miss latency
system.l2cache.overall_avg_mshr_miss_latency::total 59655.128682                       # average overall mshr miss latency
system.l2cache.replacements                       656                       # number of replacements
system.l2cache.WritebackDirty_hits::.writebacks          139                       # number of WritebackDirty hits
system.l2cache.WritebackDirty_hits::total          139                       # number of WritebackDirty hits
system.l2cache.WritebackDirty_accesses::.writebacks          139                       # number of WritebackDirty accesses(hits+misses)
system.l2cache.WritebackDirty_accesses::total          139                       # number of WritebackDirty accesses(hits+misses)
system.l2cache.CleanEvict_mshr_misses::.writebacks           15                       # number of CleanEvict MSHR misses
system.l2cache.CleanEvict_mshr_misses::total           15                       # number of CleanEvict MSHR misses
system.l2cache.CleanEvict_mshr_miss_rate::.writebacks          inf                       # mshr miss rate for CleanEvict accesses
system.l2cache.CleanEvict_mshr_miss_rate::total          inf                       # mshr miss rate for CleanEvict accesses
system.l2cache.HardPFReq_mshr_misses::.l2cache.prefetcher            6                       # number of HardPFReq MSHR misses
system.l2cache.HardPFReq_mshr_misses::total            6                       # number of HardPFReq MSHR misses
system.l2cache.HardPFReq_mshr_miss_latency::.l2cache.prefetcher       385192                       # number of HardPFReq MSHR miss cycles
system.l2cache.HardPFReq_mshr_miss_latency::total       385192                       # number of HardPFReq MSHR miss cycles
system.l2cache.HardPFReq_mshr_miss_rate::.l2cache.prefetcher          inf                       # mshr miss rate for HardPFReq accesses
system.l2cache.HardPFReq_mshr_miss_rate::total          inf                       # mshr miss rate for HardPFReq accesses
system.l2cache.HardPFReq_avg_mshr_miss_latency::.l2cache.prefetcher 64198.666667                       # average HardPFReq mshr miss latency
system.l2cache.HardPFReq_avg_mshr_miss_latency::total 64198.666667                       # average HardPFReq mshr miss latency
system.l2cache.ReadExReq_hits::.cpu.data            4                       # number of ReadExReq hits
system.l2cache.ReadExReq_hits::total                4                       # number of ReadExReq hits
system.l2cache.ReadExReq_misses::.cpu.data           98                       # number of ReadExReq misses
system.l2cache.ReadExReq_misses::total             98                       # number of ReadExReq misses
system.l2cache.ReadExReq_miss_latency::.cpu.data      6529200                       # number of ReadExReq miss cycles
system.l2cache.ReadExReq_miss_latency::total      6529200                       # number of ReadExReq miss cycles
system.l2cache.ReadExReq_accesses::.cpu.data          102                       # number of ReadExReq accesses(hits+misses)
system.l2cache.ReadExReq_accesses::total          102                       # number of ReadExReq accesses(hits+misses)
system.l2cache.ReadExReq_miss_rate::.cpu.data     0.960784                       # miss rate for ReadExReq accesses
system.l2cache.ReadExReq_miss_rate::total     0.960784                       # miss rate for ReadExReq accesses
system.l2cache.ReadExReq_avg_miss_latency::.cpu.data 66624.489796                       # average ReadExReq miss latency
system.l2cache.ReadExReq_avg_miss_latency::total 66624.489796                       # average ReadExReq miss latency
system.l2cache.ReadExReq_mshr_misses::.cpu.data           98                       # number of ReadExReq MSHR misses
system.l2cache.ReadExReq_mshr_misses::total           98                       # number of ReadExReq MSHR misses
system.l2cache.ReadExReq_mshr_miss_latency::.cpu.data      5745200                       # number of ReadExReq MSHR miss cycles
system.l2cache.ReadExReq_mshr_miss_latency::total      5745200                       # number of ReadExReq MSHR miss cycles
system.l2cache.ReadExReq_mshr_miss_rate::.cpu.data     0.960784                       # mshr miss rate for ReadExReq accesses
system.l2cache.ReadExReq_mshr_miss_rate::total     0.960784                       # mshr miss rate for ReadExReq accesses
system.l2cache.ReadExReq_avg_mshr_miss_latency::.cpu.data 58624.489796                       # average ReadExReq mshr miss latency
system.l2cache.ReadExReq_avg_mshr_miss_latency::total 58624.489796                       # average ReadExReq mshr miss latency
system.l2cache.ReadSharedReq_hits::.cpu.inst          223                       # number of ReadSharedReq hits
system.l2cache.ReadSharedReq_hits::.cpu.data          144                       # number of ReadSharedReq hits
system.l2cache.ReadSharedReq_hits::.cpu.dcache.prefetcher           18                       # number of ReadSharedReq hits
system.l2cache.ReadSharedReq_hits::total          385                       # number of ReadSharedReq hits
system.l2cache.ReadSharedReq_misses::.cpu.inst          367                       # number of ReadSharedReq misses
system.l2cache.ReadSharedReq_misses::.cpu.data          138                       # number of ReadSharedReq misses
system.l2cache.ReadSharedReq_misses::.cpu.dcache.prefetcher           38                       # number of ReadSharedReq misses
system.l2cache.ReadSharedReq_misses::total          543                       # number of ReadSharedReq misses
system.l2cache.ReadSharedReq_miss_latency::.cpu.inst     24986000                       # number of ReadSharedReq miss cycles
system.l2cache.ReadSharedReq_miss_latency::.cpu.data      9134800                       # number of ReadSharedReq miss cycles
system.l2cache.ReadSharedReq_miss_latency::.cpu.dcache.prefetcher      2632365                       # number of ReadSharedReq miss cycles
system.l2cache.ReadSharedReq_miss_latency::total     36753165                       # number of ReadSharedReq miss cycles
system.l2cache.ReadSharedReq_accesses::.cpu.inst          590                       # number of ReadSharedReq accesses(hits+misses)
system.l2cache.ReadSharedReq_accesses::.cpu.data          282                       # number of ReadSharedReq accesses(hits+misses)
system.l2cache.ReadSharedReq_accesses::.cpu.dcache.prefetcher           56                       # number of ReadSharedReq accesses(hits+misses)
system.l2cache.ReadSharedReq_accesses::total          928                       # number of ReadSharedReq accesses(hits+misses)
system.l2cache.ReadSharedReq_miss_rate::.cpu.inst     0.622034                       # miss rate for ReadSharedReq accesses
system.l2cache.ReadSharedReq_miss_rate::.cpu.data     0.489362                       # miss rate for ReadSharedReq accesses
system.l2cache.ReadSharedReq_miss_rate::.cpu.dcache.prefetcher     0.678571                       # miss rate for ReadSharedReq accesses
system.l2cache.ReadSharedReq_miss_rate::total     0.585129                       # miss rate for ReadSharedReq accesses
system.l2cache.ReadSharedReq_avg_miss_latency::.cpu.inst 68081.743869                       # average ReadSharedReq miss latency
system.l2cache.ReadSharedReq_avg_miss_latency::.cpu.data 66194.202899                       # average ReadSharedReq miss latency
system.l2cache.ReadSharedReq_avg_miss_latency::.cpu.dcache.prefetcher 69272.763158                       # average ReadSharedReq miss latency
system.l2cache.ReadSharedReq_avg_miss_latency::total 67685.386740                       # average ReadSharedReq miss latency
system.l2cache.ReadSharedReq_mshr_hits::.cpu.data            1                       # number of ReadSharedReq MSHR hits
system.l2cache.ReadSharedReq_mshr_hits::.cpu.dcache.prefetcher            1                       # number of ReadSharedReq MSHR hits
system.l2cache.ReadSharedReq_mshr_hits::total            2                       # number of ReadSharedReq MSHR hits
system.l2cache.ReadSharedReq_mshr_misses::.cpu.inst          367                       # number of ReadSharedReq MSHR misses
system.l2cache.ReadSharedReq_mshr_misses::.cpu.data          137                       # number of ReadSharedReq MSHR misses
system.l2cache.ReadSharedReq_mshr_misses::.cpu.dcache.prefetcher           37                       # number of ReadSharedReq MSHR misses
system.l2cache.ReadSharedReq_mshr_misses::total          541                       # number of ReadSharedReq MSHR misses
system.l2cache.ReadSharedReq_mshr_miss_latency::.cpu.inst     22058000                       # number of ReadSharedReq MSHR miss cycles
system.l2cache.ReadSharedReq_mshr_miss_latency::.cpu.data      7982400                       # number of ReadSharedReq MSHR miss cycles
system.l2cache.ReadSharedReq_mshr_miss_latency::.cpu.dcache.prefetcher      2306766                       # number of ReadSharedReq MSHR miss cycles
system.l2cache.ReadSharedReq_mshr_miss_latency::total     32347166                       # number of ReadSharedReq MSHR miss cycles
system.l2cache.ReadSharedReq_mshr_miss_rate::.cpu.inst     0.622034                       # mshr miss rate for ReadSharedReq accesses
system.l2cache.ReadSharedReq_mshr_miss_rate::.cpu.data     0.485816                       # mshr miss rate for ReadSharedReq accesses
system.l2cache.ReadSharedReq_mshr_miss_rate::.cpu.dcache.prefetcher     0.660714                       # mshr miss rate for ReadSharedReq accesses
system.l2cache.ReadSharedReq_mshr_miss_rate::total     0.582974                       # mshr miss rate for ReadSharedReq accesses
system.l2cache.ReadSharedReq_avg_mshr_miss_latency::.cpu.inst 60103.542234                       # average ReadSharedReq mshr miss latency
system.l2cache.ReadSharedReq_avg_mshr_miss_latency::.cpu.data 58265.693431                       # average ReadSharedReq mshr miss latency
system.l2cache.ReadSharedReq_avg_mshr_miss_latency::.cpu.dcache.prefetcher 62345.027027                       # average ReadSharedReq mshr miss latency
system.l2cache.ReadSharedReq_avg_mshr_miss_latency::total 59791.434381                       # average ReadSharedReq mshr miss latency
system.l2cache.prefetcher.pwrStateResidencyTicks::UNDEFINED    257856000                       # Cumulative time (in ticks) in various power states
system.l2cache.tags.pwrStateResidencyTicks::UNDEFINED    257856000                       # Cumulative time (in ticks) in various power states
system.l2cache.tags.tagsinuse                    4096                       # Cycle average of tags in use
system.l2cache.tags.total_refs                  14363                       # Total number of references to valid blocks.
system.l2cache.tags.sampled_refs                 4752                       # Sample count of references to valid blocks.
system.l2cache.tags.avg_refs                 3.022517                       # Average number of references to valid blocks.
system.l2cache.tags.warmup_cycle                    0                       # Cycle when the warmup percentage was hit.
system.l2cache.tags.occ_blocks::.writebacks    34.776709                       # Average occupied blocks per requestor
system.l2cache.tags.occ_blocks::.cpu.inst  1090.887960                       # Average occupied blocks per requestor
system.l2cache.tags.occ_blocks::.cpu.data  1924.897170                       # Average occupied blocks per requestor
system.l2cache.tags.occ_blocks::.cpu.dcache.prefetcher   899.247449                       # Average occupied blocks per requestor
system.l2cache.tags.occ_blocks::.l2cache.prefetcher   146.190711                       # Average occupied blocks per requestor
system.l2cache.tags.occ_percent::.writebacks     0.008490                       # Average percentage of cache occupancy
system.l2cache.tags.occ_percent::.cpu.inst     0.266330                       # Average percentage of cache occupancy
system.l2cache.tags.occ_percent::.cpu.data     0.469946                       # Average percentage of cache occupancy
system.l2cache.tags.occ_percent::.cpu.dcache.prefetcher     0.219543                       # Average percentage of cache occupancy
system.l2cache.tags.occ_percent::.l2cache.prefetcher     0.035691                       # Average percentage of cache occupancy
system.l2cache.tags.occ_percent::total              1                       # Average percentage of cache occupancy
system.l2cache.tags.occ_task_id_blocks::1022          958                       # Occupied blocks per task id
system.l2cache.tags.occ_task_id_blocks::1024         3138                       # Occupied blocks per task id
system.l2cache.tags.age_task_id_blocks_1022::0            7                       # Occupied blocks per task id
system.l2cache.tags.age_task_id_blocks_1022::1            3                       # Occupied blocks per task id
system.l2cache.tags.age_task_id_blocks_1022::2          927                       # Occupied blocks per task id
system.l2cache.tags.age_task_id_blocks_1022::3           21                       # Occupied blocks per task id
system.l2cache.tags.age_task_id_blocks_1024::0          165                       # Occupied blocks per task id
system.l2cache.tags.age_task_id_blocks_1024::1          104                       # Occupied blocks per task id
system.l2cache.tags.age_task_id_blocks_1024::2         2662                       # Occupied blocks per task id
system.l2cache.tags.age_task_id_blocks_1024::3          207                       # Occupied blocks per task id
system.l2cache.tags.occ_task_id_percent::1022     0.233887                       # Percentage of cache occupancy per task id
system.l2cache.tags.occ_task_id_percent::1024     0.766113                       # Percentage of cache occupancy per task id
system.l2cache.tags.tag_accesses                17112                       # Number of tag accesses
system.l2cache.tags.data_accesses               17112                       # Number of data accesses
system.mem_ctrl.pwrStateResidencyTicks::UNDEFINED    257856000                       # Cumulative time (in ticks) in various power states
system.mem_ctrl.bytes_read::.cpu.inst           23424                       # Number of bytes read from this memory
system.mem_ctrl.bytes_read::.cpu.data           15040                       # Number of bytes read from this memory
system.mem_ctrl.bytes_read::.cpu.dcache.prefetcher         2368                       # Number of bytes read from this memory
system.mem_ctrl.bytes_read::.l2cache.prefetcher          384                       # Number of bytes read from this memory
system.mem_ctrl.bytes_read::total               41216                       # Number of bytes read from this memory
system.mem_ctrl.bytes_inst_read::.cpu.inst        23424                       # Number of instructions bytes read from this memory
system.mem_ctrl.bytes_inst_read::total          23424                       # Number of instructions bytes read from this memory
system.mem_ctrl.bytes_written::.writebacks         3648                       # Number of bytes written to this memory
system.mem_ctrl.bytes_written::total             3648                       # Number of bytes written to this memory
system.mem_ctrl.num_reads::.cpu.inst              366                       # Number of read requests responded to by this memory
system.mem_ctrl.num_reads::.cpu.data              235                       # Number of read requests responded to by this memory
system.mem_ctrl.num_reads::.cpu.dcache.prefetcher           37                       # Number of read requests responded to by this memory
system.mem_ctrl.num_reads::.l2cache.prefetcher            6                       # Number of read requests responded to by this memory
system.mem_ctrl.num_reads::total                  644                       # Number of read requests responded to by this memory
system.mem_ctrl.num_writes::.writebacks            57                       # Number of write requests responded to by this memory
system.mem_ctrl.num_writes::total                  57                       # Number of write requests responded to by this memory
system.mem_ctrl.bw_read::.cpu.inst           90841400                       # Total read bandwidth from this memory (bytes/s)
system.mem_ctrl.bw_read::.cpu.data           58327128                       # Total read bandwidth from this memory (bytes/s)
system.mem_ctrl.bw_read::.cpu.dcache.prefetcher      9183420                       # Total read bandwidth from this memory (bytes/s)
system.mem_ctrl.bw_read::.l2cache.prefetcher      1489203                       # Total read bandwidth from this memory (bytes/s)
system.mem_ctrl.bw_read::total              159841152                       # Total read bandwidth from this memory (bytes/s)
system.mem_ctrl.bw_inst_read::.cpu.inst      90841400                       # Instruction read bandwidth from this memory (bytes/s)
system.mem_ctrl.bw_inst_read::total          90841400                       # Instruction read bandwidth from this memory (bytes/s)
system.mem_ctrl.bw_write::.writebacks        14147431                       # Write bandwidth from this memory (bytes/s)
system.mem_ctrl.bw_write::total              14147431                       # Write bandwidth from this memory (bytes/s)
system.mem_ctrl.bw_total::.writebacks        14147431                       # Total bandwidth to/from this memory (bytes/s)
system.mem_ctrl.bw_total::.cpu.inst          90841400                       # Total bandwidth to/from this memory (bytes/s)
system.mem_ctrl.bw_total::.cpu.data          58327128                       # Total bandwidth to/from this memory (bytes/s)
system.mem_ctrl.bw_total::.cpu.dcache.prefetcher      9183420                       # Total bandwidth to/from this memory (bytes/s)
system.mem_ctrl.bw_total::.l2cache.prefetcher      1489203                       # Total bandwidth to/from this memory (bytes/s)
system.mem_ctrl.bw_total::total             173988583                       # Total bandwidth to/from this memory (bytes/s)

---------- End Simulation Statistics   ----------
