
---------- Begin Simulation Statistics ----------
final_tick                                 1101508000                       # Number of ticks from beginning of simulation (restored from checkpoints and never reset)
host_inst_rate                                 188092                       # Simulator instruction rate (inst/s)
host_mem_usage                                4402744                       # Number of bytes of host memory used
host_op_rate                                   326577                       # Simulator op (including micro ops) rate (op/s)
host_seconds                                    11.23                       # Real time elapsed on the host
host_tick_rate                               98104760                       # Simulator tick rate (ticks/s)
sim_freq                                 1000000000000                       # Frequency of simulated ticks
sim_insts                                     2111851                       # Number of instructions simulated
sim_ops                                       3666763                       # Number of ops (including micro ops) simulated
sim_seconds                                  0.001102                       # Number of seconds simulated
sim_ticks                                  1101508000                       # Number of ticks simulated
system.cpu.branchPred.BTBCorrect                    0                       # Number of correct BTB predictions (this stat may not work properly.
system.cpu.branchPred.BTBHitPct              0.000000                       # BTB Hit Percentage
system.cpu.branchPred.BTBHits                       0                       # Number of BTB hits
system.cpu.branchPred.BTBLookups               434522                       # Number of BTB lookups
system.cpu.branchPred.RASInCorrect                  4                       # Number of incorrect RAS predictions.
system.cpu.branchPred.condIncorrect             23762                       # Number of conditional branches incorrect
system.cpu.branchPred.condPredicted            463739                       # Number of conditional branches predicted
system.cpu.branchPred.indirectHits             242270                       # Number of indirect target hits.
system.cpu.branchPred.indirectLookups          434522                       # Number of indirect predictor lookups.
system.cpu.branchPred.indirectMisses           192252                       # Number of indirect misses.
system.cpu.branchPred.lookups                  492079                       # Number of BP lookups
system.cpu.branchPred.usedRAS                   12379                       # Number of times the RAS was used to get a target.
system.cpu.branchPredindirectMispredicted        11714                       # Number of mispredicted indirect branches.
system.cpu.cc_regfile_reads                   2393688                       # number of cc regfile reads
system.cpu.cc_regfile_writes                  1988792                       # number of cc regfile writes
system.cpu.commit.amos                              0                       # Number of atomic instructions committed
system.cpu.commit.branchMispredicts             23818                       # The number of times a branch was mispredicted
system.cpu.commit.branches                     350112                       # Number of branches committed
system.cpu.commit.bw_lim_events                606401                       # number cycles where commit BW limit reached
system.cpu.commit.commitNonSpecStalls             732                       # The number of times commit has been forced to stall to communicate backwards
system.cpu.commit.commitSquashedInsts          876260                       # The number of squashed insts skipped by commit
system.cpu.commit.committedInsts              2111851                       # Number of instructions committed
system.cpu.commit.committedOps                3666763                       # Number of ops (including micro ops) committed
system.cpu.commit.committed_per_cycle::samples      2364448                       # Number of insts commited each cycle
system.cpu.commit.committed_per_cycle::mean     1.550790                       # Number of insts commited each cycle
system.cpu.commit.committed_per_cycle::stdev     1.720243                       # Number of insts commited each cycle
system.cpu.commit.committed_per_cycle::underflows            0      0.00%      0.00% # Number of insts commited each cycle
system.cpu.commit.committed_per_cycle::0      1156049     48.89%     48.89% # Number of insts commited each cycle
system.cpu.commit.committed_per_cycle::1       193557      8.19%     57.08% # Number of insts commited each cycle
system.cpu.commit.committed_per_cycle::2       177721      7.52%     64.60% # Number of insts commited each cycle
system.cpu.commit.committed_per_cycle::3       230720      9.76%     74.35% # Number of insts commited each cycle
system.cpu.commit.committed_per_cycle::4       606401     25.65%    100.00% # Number of insts commited each cycle
system.cpu.commit.committed_per_cycle::overflows            0      0.00%    100.00% # Number of insts commited each cycle
system.cpu.commit.committed_per_cycle::min_value            0                       # Number of insts commited each cycle
system.cpu.commit.committed_per_cycle::max_value            4                       # Number of insts commited each cycle
system.cpu.commit.committed_per_cycle::total      2364448                       # Number of insts commited each cycle
system.cpu.commit.fp_insts                      72844                       # Number of committed floating point instructions.
system.cpu.commit.function_calls                10612                       # Number of function calls committed.
system.cpu.commit.int_insts                   3612595                       # Number of committed integer instructions.
system.cpu.commit.loads                        496550                       # Number of loads committed
system.cpu.commit.membars                           1                       # Number of memory barriers committed
system.cpu.commit.op_class_0::No_OpClass        20167      0.55%      0.55% # Class of committed instruction
system.cpu.commit.op_class_0::IntAlu          2893315     78.91%     79.46% # Class of committed instruction
system.cpu.commit.op_class_0::IntMult            3323      0.09%     79.55% # Class of committed instruction
system.cpu.commit.op_class_0::IntDiv            37816      1.03%     80.58% # Class of committed instruction
system.cpu.commit.op_class_0::FloatAdd           2834      0.08%     80.66% # Class of committed instruction
system.cpu.commit.op_class_0::FloatCmp              0      0.00%     80.66% # Class of committed instruction
system.cpu.commit.op_class_0::FloatCvt           1200      0.03%     80.69% # Class of committed instruction
system.cpu.commit.op_class_0::FloatMult             0      0.00%     80.69% # Class of committed instruction
system.cpu.commit.op_class_0::FloatMultAcc            0      0.00%     80.69% # Class of committed instruction
system.cpu.commit.op_class_0::FloatDiv              0      0.00%     80.69% # Class of committed instruction
system.cpu.commit.op_class_0::FloatMisc             0      0.00%     80.69% # Class of committed instruction
system.cpu.commit.op_class_0::FloatSqrt             0      0.00%     80.69% # Class of committed instruction
system.cpu.commit.op_class_0::SimdAdd            6184      0.17%     80.86% # Class of committed instruction
system.cpu.commit.op_class_0::SimdAddAcc            0      0.00%     80.86% # Class of committed instruction
system.cpu.commit.op_class_0::SimdAlu           11116      0.30%     81.16% # Class of committed instruction
system.cpu.commit.op_class_0::SimdCmp               0      0.00%     81.16% # Class of committed instruction
system.cpu.commit.op_class_0::SimdCvt           12050      0.33%     81.49% # Class of committed instruction
system.cpu.commit.op_class_0::SimdMisc           6479      0.18%     81.67% # Class of committed instruction
system.cpu.commit.op_class_0::SimdMult              0      0.00%     81.67% # Class of committed instruction
system.cpu.commit.op_class_0::SimdMultAcc            0      0.00%     81.67% # Class of committed instruction
system.cpu.commit.op_class_0::SimdShift          1055      0.03%     81.69% # Class of committed instruction
system.cpu.commit.op_class_0::SimdShiftAcc            0      0.00%     81.69% # Class of committed instruction
system.cpu.commit.op_class_0::SimdDiv               0      0.00%     81.69% # Class of committed instruction
system.cpu.commit.op_class_0::SimdSqrt              0      0.00%     81.69% # Class of committed instruction
system.cpu.commit.op_class_0::SimdFloatAdd            0      0.00%     81.69% # Class of committed instruction
system.cpu.commit.op_class_0::SimdFloatAlu            0      0.00%     81.69% # Class of committed instruction
system.cpu.commit.op_class_0::SimdFloatCmp            0      0.00%     81.69% # Class of committed instruction
system.cpu.commit.op_class_0::SimdFloatCvt            0      0.00%     81.69% # Class of committed instruction
system.cpu.commit.op_class_0::SimdFloatDiv            0      0.00%     81.69% # Class of committed instruction
system.cpu.commit.op_class_0::SimdFloatMisc            0      0.00%     81.69% # Class of committed instruction
system.cpu.commit.op_class_0::SimdFloatMult            0      0.00%     81.69% # Class of committed instruction
system.cpu.commit.op_class_0::SimdFloatMultAcc            0      0.00%     81.69% # Class of committed instruction
system.cpu.commit.op_class_0::SimdFloatSqrt            0      0.00%     81.69% # Class of committed instruction
system.cpu.commit.op_class_0::SimdReduceAdd            0      0.00%     81.69% # Class of committed instruction
system.cpu.commit.op_class_0::SimdReduceAlu            0      0.00%     81.69% # Class of committed instruction
system.cpu.commit.op_class_0::SimdReduceCmp            0      0.00%     81.69% # Class of committed instruction
system.cpu.commit.op_class_0::SimdFloatReduceAdd            0      0.00%     81.69% # Class of committed instruction
system.cpu.commit.op_class_0::SimdFloatReduceCmp            0      0.00%     81.69% # Class of committed instruction
system.cpu.commit.op_class_0::SimdAes               0      0.00%     81.69% # Class of committed instruction
system.cpu.commit.op_class_0::SimdAesMix            0      0.00%     81.69% # Class of committed instruction
system.cpu.commit.op_class_0::SimdSha1Hash            0      0.00%     81.69% # Class of committed instruction
system.cpu.commit.op_class_0::SimdSha1Hash2            0      0.00%     81.69% # Class of committed instruction
system.cpu.commit.op_class_0::SimdSha256Hash            0      0.00%     81.69% # Class of committed instruction
system.cpu.commit.op_class_0::SimdSha256Hash2            0      0.00%     81.69% # Class of committed instruction
system.cpu.commit.op_class_0::SimdShaSigma2            0      0.00%     81.69% # Class of committed instruction
system.cpu.commit.op_class_0::SimdShaSigma3            0      0.00%     81.69% # Class of committed instruction
system.cpu.commit.op_class_0::SimdPredAlu            0      0.00%     81.69% # Class of committed instruction
system.cpu.commit.op_class_0::MemRead          477512     13.02%     94.72% # Class of committed instruction
system.cpu.commit.op_class_0::MemWrite         162605      4.43%     99.15% # Class of committed instruction
system.cpu.commit.op_class_0::FloatMemRead        19038      0.52%     99.67% # Class of committed instruction
system.cpu.commit.op_class_0::FloatMemWrite        12069      0.33%    100.00% # Class of committed instruction
system.cpu.commit.op_class_0::IprAccess             0      0.00%    100.00% # Class of committed instruction
system.cpu.commit.op_class_0::InstPrefetch            0      0.00%    100.00% # Class of committed instruction
system.cpu.commit.op_class_0::total           3666763                       # Class of committed instruction
system.cpu.commit.refs                         671224                       # Number of memory references committed
system.cpu.commit.swp_count                         0                       # Number of s/w prefetches committed
system.cpu.commit.vec_insts                         0                       # Number of committed Vector instructions.
system.cpu.committedInsts                     2111851                       # Number of Instructions Simulated
system.cpu.committedOps                       3666763                       # Number of Ops (including micro ops) Simulated
system.cpu.cpi                               1.303961                       # CPI: Cycles Per Instruction
system.cpu.cpi_total                         1.303961                       # CPI: Total CPI of All Threads
system.cpu.dcache.prefetcher.num_hwpf_issued         8312                       # number of hwpf issued
system.cpu.dcache.prefetcher.pfBufferHit        34913                       # number of redundant prefetches already in prefetch queue
system.cpu.dcache.prefetcher.pfIdentified        49618                       # number of prefetch candidates identified
system.cpu.dcache.prefetcher.pfInCache              0                       # number of redundant prefetches already in cache/mshr dropped
system.cpu.dcache.prefetcher.pfRemovedFull            0                       # number of prefetches dropped due to prefetch queue size
system.cpu.dcache.prefetcher.pfSpanPage          4590                       # number of prefetches that crossed the page
system.cpu.decode.BlockedCycles               1033612                       # Number of cycles decode is blocked
system.cpu.decode.DecodedInsts                4754662                       # Number of instructions handled by decode
system.cpu.decode.IdleCycles                   298742                       # Number of cycles decode is idle
system.cpu.decode.RunCycles                   1156623                       # Number of cycles decode is running
system.cpu.decode.SquashCycles                  23884                       # Number of cycles decode is squashing
system.cpu.decode.UnblockCycles                 90695                       # Number of cycles decode is unblocking
system.cpu.dtb.rdAccesses                      578811                       # TLB accesses on read requests
system.cpu.dtb.rdMisses                          2045                       # TLB misses on read requests
system.cpu.dtb.wrAccesses                      193702                       # TLB accesses on write requests
system.cpu.dtb.wrMisses                           165                       # TLB misses on write requests
system.cpu.fetch.Branches                      492079                       # Number of branches that fetch encountered
system.cpu.fetch.CacheLines                    250990                       # Number of cache lines fetched
system.cpu.fetch.Cycles                       2242886                       # Number of cycles fetch has run and was not squashing or blocked
system.cpu.fetch.IcacheSquashes                  4593                       # Number of outstanding Icache misses that were squashed
system.cpu.fetch.Insts                        2874115                       # Number of instructions fetch has processed
system.cpu.fetch.MiscStallCycles                   80                       # Number of cycles fetch has spent waiting on interrupts, or bad addresses, or out of MSHRs
system.cpu.fetch.PendingQuiesceStallCycles            8                       # Number of stall cycles due to pending quiesce instructions
system.cpu.fetch.PendingTrapStallCycles           397                       # Number of stall cycles due to pending traps
system.cpu.fetch.SquashCycles                   47768                       # Number of cycles fetch has spent squashing
system.cpu.fetch.branchRate                  0.178693                       # Number of branch fetches per cycle
system.cpu.fetch.icacheStallCycles             336301                       # Number of cycles fetch is stalled on an Icache miss
system.cpu.fetch.predictedBranches             254649                       # Number of branches that fetch has predicted taken
system.cpu.fetch.rate                        1.043702                       # Number of inst fetches per cycle
system.cpu.fetch.rateDist::samples            2603556                       # Number of instructions fetched each cycle (Total)
system.cpu.fetch.rateDist::mean              1.930999                       # Number of instructions fetched each cycle (Total)
system.cpu.fetch.rateDist::stdev             1.928717                       # Number of instructions fetched each cycle (Total)
system.cpu.fetch.rateDist::underflows               0      0.00%      0.00% # Number of instructions fetched each cycle (Total)
system.cpu.fetch.rateDist::0                  1237732     47.54%     47.54% # Number of instructions fetched each cycle (Total)
system.cpu.fetch.rateDist::1                    77586      2.98%     50.52% # Number of instructions fetched each cycle (Total)
system.cpu.fetch.rateDist::2                    62622      2.41%     52.93% # Number of instructions fetched each cycle (Total)
system.cpu.fetch.rateDist::3                    77831      2.99%     55.91% # Number of instructions fetched each cycle (Total)
system.cpu.fetch.rateDist::4                  1147785     44.09%    100.00% # Number of instructions fetched each cycle (Total)
system.cpu.fetch.rateDist::overflows                0      0.00%    100.00% # Number of instructions fetched each cycle (Total)
system.cpu.fetch.rateDist::min_value                0                       # Number of instructions fetched each cycle (Total)
system.cpu.fetch.rateDist::max_value                4                       # Number of instructions fetched each cycle (Total)
system.cpu.fetch.rateDist::total              2603556                       # Number of instructions fetched each cycle (Total)
system.cpu.fp_regfile_reads                    117573                       # number of floating regfile reads
system.cpu.fp_regfile_writes                    64344                       # number of floating regfile writes
system.cpu.fuPool.fu_ticks_busy::IntALU(0)    221362800                       # Total ticks fu was busy
system.cpu.fuPool.fu_ticks_busy::IntALU(1)    221362800                       # Total ticks fu was busy
system.cpu.fuPool.fu_ticks_busy::IntALU(2)    221362800                       # Total ticks fu was busy
system.cpu.fuPool.fu_ticks_busy::IntALU(3)    221362400                       # Total ticks fu was busy
system.cpu.fuPool.fu_ticks_busy::IntALU(4)    221362400                       # Total ticks fu was busy
system.cpu.fuPool.fu_ticks_busy::IntALU(5)    221362400                       # Total ticks fu was busy
system.cpu.fuPool.fu_ticks_busy::IntMultDiv(0)      9000400                       # Total ticks fu was busy
system.cpu.fuPool.fu_ticks_busy::IntMultDiv(1)      8999600                       # Total ticks fu was busy
system.cpu.fuPool.fu_ticks_busy::FP_ALU(0)       544400                       # Total ticks fu was busy
system.cpu.fuPool.fu_ticks_busy::FP_ALU(1)       544400                       # Total ticks fu was busy
system.cpu.fuPool.fu_ticks_busy::FP_ALU(2)       544000                       # Total ticks fu was busy
system.cpu.fuPool.fu_ticks_busy::FP_ALU(3)       544000                       # Total ticks fu was busy
system.cpu.fuPool.fu_ticks_busy::FP_MultDiv(0)            0                       # Total ticks fu was busy
system.cpu.fuPool.fu_ticks_busy::FP_MultDiv(1)            0                       # Total ticks fu was busy
system.cpu.fuPool.fu_ticks_busy::SIMD_Unit(0)      4335200                       # Total ticks fu was busy
system.cpu.fuPool.fu_ticks_busy::SIMD_Unit(1)      4496000                       # Total ticks fu was busy
system.cpu.fuPool.fu_ticks_busy::SIMD_Unit(2)      4441600                       # Total ticks fu was busy
system.cpu.fuPool.fu_ticks_busy::SIMD_Unit(3)      4286400                       # Total ticks fu was busy
system.cpu.fuPool.fu_ticks_busy::PredALU(0)            0                       # Total ticks fu was busy
system.cpu.fuPool.fu_ticks_busy::RdWrPort(0)     78710400                       # Total ticks fu was busy
system.cpu.fuPool.fu_ticks_busy::RdWrPort(1)     78680400                       # Total ticks fu was busy
system.cpu.fuPool.fu_ticks_busy::RdWrPort(2)     78684800                       # Total ticks fu was busy
system.cpu.fuPool.fu_ticks_busy::RdWrPort(3)     78681200                       # Total ticks fu was busy
system.cpu.fuPool.fu_ticks_busy::IprPort(0)            0                       # Total ticks fu was busy
system.cpu.fuPool.fu_ticks_busy::total     1680668400                       # Total ticks fu was busy
system.cpu.icache.prefetcher.num_hwpf_issued            0                       # number of hwpf issued
system.cpu.icache.prefetcher.pfBufferHit            0                       # number of redundant prefetches already in prefetch queue
system.cpu.icache.prefetcher.pfIdentified            0                       # number of prefetch candidates identified
system.cpu.icache.prefetcher.pfInCache              0                       # number of redundant prefetches already in cache/mshr dropped
system.cpu.icache.prefetcher.pfRemovedFull            0                       # number of prefetches dropped due to prefetch queue size
system.cpu.icache.prefetcher.pfSpanPage             0                       # number of prefetches that crossed the page
system.cpu.idleCycles                          150215                       # Total number of cycles that the CPU has spent unscheduled due to idling
system.cpu.iew.branchMispredicts                27990                       # Number of branch mispredicts detected at execute
system.cpu.iew.exec_branches                   380054                       # Number of branches executed
system.cpu.iew.exec_nop                             0                       # number of nop insts executed
system.cpu.iew.exec_rate                     1.522963                       # Inst execution rate
system.cpu.iew.exec_refs                       774153                       # number of memory reference insts executed
system.cpu.iew.exec_stores                     193691                       # Number of stores executed
system.cpu.iew.exec_swp                             0                       # number of swp insts executed
system.cpu.iew.iewBlockCycles                  689032                       # Number of cycles IEW is blocking
system.cpu.iew.iewDispLoadInsts                610929                       # Number of dispatched load instructions
system.cpu.iew.iewDispNonSpecInsts                919                       # Number of dispatched non-speculative instructions
system.cpu.iew.iewDispSquashedInsts               585                       # Number of squashed instructions skipped by dispatch
system.cpu.iew.iewDispStoreInsts               203908                       # Number of dispatched store instructions
system.cpu.iew.iewDispatchedInsts             4542971                       # Number of instructions dispatched to IQ
system.cpu.iew.iewExecLoadInsts                580462                       # Number of load instructions executed
system.cpu.iew.iewExecSquashedInsts             33729                       # Number of squashed instructions skipped in execute
system.cpu.iew.iewExecutedInsts               4193891                       # Number of executed instructions
system.cpu.iew.iewIQFullEvents                   3371                       # Number of times the IQ has become full, causing a stall
system.cpu.iew.iewIdleCycles                        0                       # Number of cycles IEW is idle
system.cpu.iew.iewLSQFullEvents                  8057                       # Number of times the LSQ has become full, causing a stall
system.cpu.iew.iewSquashCycles                  23884                       # Number of cycles IEW is squashing
system.cpu.iew.iewUnblockCycles                 14250                       # Number of cycles IEW is unblocking
system.cpu.iew.lsq.thread0.blockedLoads             0                       # Number of blocked loads due to partial load-store forwarding
system.cpu.iew.lsq.thread0.cacheBlocked           594                       # Number of times an access to memory failed due to the cache being blocked
system.cpu.iew.lsq.thread0.forwLoads            40536                       # Number of loads that had data forwarded from stores
system.cpu.iew.lsq.thread0.ignoredResponses          221                       # Number of memory responses ignored because the instruction is squashed
system.cpu.iew.lsq.thread0.invAddrLoads             0                       # Number of loads ignored due to an invalid address
system.cpu.iew.lsq.thread0.invAddrSwpfs             0                       # Number of software prefetches ignored due to an invalid address
system.cpu.iew.lsq.thread0.memOrderViolation           79                       # Number of memory ordering violations
system.cpu.iew.lsq.thread0.rescheduledLoads            0                       # Number of loads that were rescheduled
system.cpu.iew.lsq.thread0.squashedLoads       114377                       # Number of loads squashed
system.cpu.iew.lsq.thread0.squashedStores        29233                       # Number of stores squashed
system.cpu.iew.memOrderViolationEvents             79                       # Number of memory order violations
system.cpu.iew.predictedNotTakenIncorrect        19825                       # Number of branches that were predicted not taken incorrectly
system.cpu.iew.predictedTakenIncorrect           8165                       # Number of branches that were predicted taken incorrectly
system.cpu.iew.wb_consumers                   5902374                       # num instructions consuming a value
system.cpu.iew.wb_count                       4172449                       # cumulative count of insts written-back
system.cpu.iew.wb_fanout                     0.566020                       # average fanout of values written-back
system.cpu.iew.wb_producers                   3340860                       # num instructions producing a value
system.cpu.iew.wb_rate                       1.515176                       # insts written-back per cycle
system.cpu.iew.wb_sent                        4179318                       # cumulative count of insts sent to commit
system.cpu.int_regfile_reads                  6506036                       # number of integer regfile reads
system.cpu.int_regfile_writes                 3612907                       # number of integer regfile writes
system.cpu.ipc                               0.766894                       # IPC: Instructions Per Cycle
system.cpu.ipc_total                         0.766894                       # IPC: Total IPC of All Threads
system.cpu.iq.FU_type_0::No_OpClass             25949      0.61%      0.61% # Type of FU issued
system.cpu.iq.FU_type_0::IntAlu               3320440     78.54%     79.16% # Type of FU issued
system.cpu.iq.FU_type_0::IntMult                 3347      0.08%     79.23% # Type of FU issued
system.cpu.iq.FU_type_0::IntDiv                 41653      0.99%     80.22% # Type of FU issued
system.cpu.iq.FU_type_0::FloatAdd                4208      0.10%     80.32% # Type of FU issued
system.cpu.iq.FU_type_0::FloatCmp                   0      0.00%     80.32% # Type of FU issued
system.cpu.iq.FU_type_0::FloatCvt                1234      0.03%     80.35% # Type of FU issued
system.cpu.iq.FU_type_0::FloatMult                  0      0.00%     80.35% # Type of FU issued
system.cpu.iq.FU_type_0::FloatMultAcc               0      0.00%     80.35% # Type of FU issued
system.cpu.iq.FU_type_0::FloatDiv                   0      0.00%     80.35% # Type of FU issued
system.cpu.iq.FU_type_0::FloatMisc                  0      0.00%     80.35% # Type of FU issued
system.cpu.iq.FU_type_0::FloatSqrt                  0      0.00%     80.35% # Type of FU issued
system.cpu.iq.FU_type_0::SimdAdd                 6777      0.16%     80.51% # Type of FU issued
system.cpu.iq.FU_type_0::SimdAddAcc                 0      0.00%     80.51% # Type of FU issued
system.cpu.iq.FU_type_0::SimdAlu                14454      0.34%     80.85% # Type of FU issued
system.cpu.iq.FU_type_0::SimdCmp                    0      0.00%     80.85% # Type of FU issued
system.cpu.iq.FU_type_0::SimdCvt                13631      0.32%     81.17% # Type of FU issued
system.cpu.iq.FU_type_0::SimdMisc                7028      0.17%     81.34% # Type of FU issued
system.cpu.iq.FU_type_0::SimdMult                   0      0.00%     81.34% # Type of FU issued
system.cpu.iq.FU_type_0::SimdMultAcc                0      0.00%     81.34% # Type of FU issued
system.cpu.iq.FU_type_0::SimdShift               2008      0.05%     81.39% # Type of FU issued
system.cpu.iq.FU_type_0::SimdShiftAcc               0      0.00%     81.39% # Type of FU issued
system.cpu.iq.FU_type_0::SimdDiv                    0      0.00%     81.39% # Type of FU issued
system.cpu.iq.FU_type_0::SimdSqrt                   0      0.00%     81.39% # Type of FU issued
system.cpu.iq.FU_type_0::SimdFloatAdd               0      0.00%     81.39% # Type of FU issued
system.cpu.iq.FU_type_0::SimdFloatAlu               0      0.00%     81.39% # Type of FU issued
system.cpu.iq.FU_type_0::SimdFloatCmp               0      0.00%     81.39% # Type of FU issued
system.cpu.iq.FU_type_0::SimdFloatCvt               0      0.00%     81.39% # Type of FU issued
system.cpu.iq.FU_type_0::SimdFloatDiv               0      0.00%     81.39% # Type of FU issued
system.cpu.iq.FU_type_0::SimdFloatMisc              0      0.00%     81.39% # Type of FU issued
system.cpu.iq.FU_type_0::SimdFloatMult              0      0.00%     81.39% # Type of FU issued
system.cpu.iq.FU_type_0::SimdFloatMultAcc            0      0.00%     81.39% # Type of FU issued
system.cpu.iq.FU_type_0::SimdFloatSqrt              0      0.00%     81.39% # Type of FU issued
system.cpu.iq.FU_type_0::SimdReduceAdd              0      0.00%     81.39% # Type of FU issued
system.cpu.iq.FU_type_0::SimdReduceAlu              0      0.00%     81.39% # Type of FU issued
system.cpu.iq.FU_type_0::SimdReduceCmp              0      0.00%     81.39% # Type of FU issued
system.cpu.iq.FU_type_0::SimdFloatReduceAdd            0      0.00%     81.39% # Type of FU issued
system.cpu.iq.FU_type_0::SimdFloatReduceCmp            0      0.00%     81.39% # Type of FU issued
system.cpu.iq.FU_type_0::SimdAes                    0      0.00%     81.39% # Type of FU issued
system.cpu.iq.FU_type_0::SimdAesMix                 0      0.00%     81.39% # Type of FU issued
system.cpu.iq.FU_type_0::SimdSha1Hash               0      0.00%     81.39% # Type of FU issued
system.cpu.iq.FU_type_0::SimdSha1Hash2              0      0.00%     81.39% # Type of FU issued
system.cpu.iq.FU_type_0::SimdSha256Hash             0      0.00%     81.39% # Type of FU issued
system.cpu.iq.FU_type_0::SimdSha256Hash2            0      0.00%     81.39% # Type of FU issued
system.cpu.iq.FU_type_0::SimdShaSigma2              0      0.00%     81.39% # Type of FU issued
system.cpu.iq.FU_type_0::SimdShaSigma3              0      0.00%     81.39% # Type of FU issued
system.cpu.iq.FU_type_0::SimdPredAlu                0      0.00%     81.39% # Type of FU issued
system.cpu.iq.FU_type_0::MemRead               566198     13.39%     94.78% # Type of FU issued
system.cpu.iq.FU_type_0::MemWrite              182870      4.33%     99.11% # Type of FU issued
system.cpu.iq.FU_type_0::FloatMemRead           24400      0.58%     99.68% # Type of FU issued
system.cpu.iq.FU_type_0::FloatMemWrite          13426      0.32%    100.00% # Type of FU issued
system.cpu.iq.FU_type_0::IprAccess                  0      0.00%    100.00% # Type of FU issued
system.cpu.iq.FU_type_0::InstPrefetch               0      0.00%    100.00% # Type of FU issued
system.cpu.iq.FU_type_0::total                4227623                       # Type of FU issued
system.cpu.iq.fp_alu_accesses                   88148                       # Number of floating point alu accesses
system.cpu.iq.fp_inst_queue_reads              177511                       # Number of floating instruction queue reads
system.cpu.iq.fp_inst_queue_wakeup_accesses        85047                       # Number of floating instruction queue wakeup accesses
system.cpu.iq.fp_inst_queue_writes             125476                       # Number of floating instruction queue writes
system.cpu.iq.fu_busy_cnt                           0                       # FU busy when requested
system.cpu.iq.fu_busy_rate                          0                       # FU busy rate (busy events/executed inst)
system.cpu.iq.fu_full::No_OpClass                   0                       # attempts to use FU when none available
system.cpu.iq.fu_full::IntAlu                       0                       # attempts to use FU when none available
system.cpu.iq.fu_full::IntMult                      0                       # attempts to use FU when none available
system.cpu.iq.fu_full::IntDiv                       0                       # attempts to use FU when none available
system.cpu.iq.fu_full::FloatAdd                     0                       # attempts to use FU when none available
system.cpu.iq.fu_full::FloatCmp                     0                       # attempts to use FU when none available
system.cpu.iq.fu_full::FloatCvt                     0                       # attempts to use FU when none available
system.cpu.iq.fu_full::FloatMult                    0                       # attempts to use FU when none available
system.cpu.iq.fu_full::FloatMultAcc                 0                       # attempts to use FU when none available
system.cpu.iq.fu_full::FloatDiv                     0                       # attempts to use FU when none available
system.cpu.iq.fu_full::FloatMisc                    0                       # attempts to use FU when none available
system.cpu.iq.fu_full::FloatSqrt                    0                       # attempts to use FU when none available
system.cpu.iq.fu_full::SimdAdd                      0                       # attempts to use FU when none available
system.cpu.iq.fu_full::SimdAddAcc                   0                       # attempts to use FU when none available
system.cpu.iq.fu_full::SimdAlu                      0                       # attempts to use FU when none available
system.cpu.iq.fu_full::SimdCmp                      0                       # attempts to use FU when none available
system.cpu.iq.fu_full::SimdCvt                      0                       # attempts to use FU when none available
system.cpu.iq.fu_full::SimdMisc                     0                       # attempts to use FU when none available
system.cpu.iq.fu_full::SimdMult                     0                       # attempts to use FU when none available
system.cpu.iq.fu_full::SimdMultAcc                  0                       # attempts to use FU when none available
system.cpu.iq.fu_full::SimdShift                    0                       # attempts to use FU when none available
system.cpu.iq.fu_full::SimdShiftAcc                 0                       # attempts to use FU when none available
system.cpu.iq.fu_full::SimdDiv                      0                       # attempts to use FU when none available
system.cpu.iq.fu_full::SimdSqrt                     0                       # attempts to use FU when none available
system.cpu.iq.fu_full::SimdFloatAdd                 0                       # attempts to use FU when none available
system.cpu.iq.fu_full::SimdFloatAlu                 0                       # attempts to use FU when none available
system.cpu.iq.fu_full::SimdFloatCmp                 0                       # attempts to use FU when none available
system.cpu.iq.fu_full::SimdFloatCvt                 0                       # attempts to use FU when none available
system.cpu.iq.fu_full::SimdFloatDiv                 0                       # attempts to use FU when none available
system.cpu.iq.fu_full::SimdFloatMisc                0                       # attempts to use FU when none available
system.cpu.iq.fu_full::SimdFloatMult                0                       # attempts to use FU when none available
system.cpu.iq.fu_full::SimdFloatMultAcc             0                       # attempts to use FU when none available
system.cpu.iq.fu_full::SimdFloatSqrt                0                       # attempts to use FU when none available
system.cpu.iq.fu_full::SimdReduceAdd                0                       # attempts to use FU when none available
system.cpu.iq.fu_full::SimdReduceAlu                0                       # attempts to use FU when none available
system.cpu.iq.fu_full::SimdReduceCmp                0                       # attempts to use FU when none available
system.cpu.iq.fu_full::SimdFloatReduceAdd            0                       # attempts to use FU when none available
system.cpu.iq.fu_full::SimdFloatReduceCmp            0                       # attempts to use FU when none available
system.cpu.iq.fu_full::SimdAes                      0                       # attempts to use FU when none available
system.cpu.iq.fu_full::SimdAesMix                   0                       # attempts to use FU when none available
system.cpu.iq.fu_full::SimdSha1Hash                 0                       # attempts to use FU when none available
system.cpu.iq.fu_full::SimdSha1Hash2                0                       # attempts to use FU when none available
system.cpu.iq.fu_full::SimdSha256Hash               0                       # attempts to use FU when none available
system.cpu.iq.fu_full::SimdSha256Hash2              0                       # attempts to use FU when none available
system.cpu.iq.fu_full::SimdShaSigma2                0                       # attempts to use FU when none available
system.cpu.iq.fu_full::SimdShaSigma3                0                       # attempts to use FU when none available
system.cpu.iq.fu_full::SimdPredAlu                  0                       # attempts to use FU when none available
system.cpu.iq.fu_full::MemRead                      0                       # attempts to use FU when none available
system.cpu.iq.fu_full::MemWrite                     0                       # attempts to use FU when none available
system.cpu.iq.fu_full::FloatMemRead                 0                       # attempts to use FU when none available
system.cpu.iq.fu_full::FloatMemWrite                0                       # attempts to use FU when none available
system.cpu.iq.fu_full::IprAccess                    0                       # attempts to use FU when none available
system.cpu.iq.fu_full::InstPrefetch                 0                       # attempts to use FU when none available
system.cpu.iq.int_alu_accesses                4113526                       # Number of integer alu accesses
system.cpu.iq.int_inst_queue_reads           10900076                       # Number of integer instruction queue reads
system.cpu.iq.int_inst_queue_wakeup_accesses      4087402                       # Number of integer instruction queue wakeup accesses
system.cpu.iq.int_inst_queue_writes           5293767                       # Number of integer instruction queue writes
system.cpu.iq.iqInstsAdded                    4541882                       # Number of instructions added to the IQ (excludes non-spec)
system.cpu.iq.iqInstsIssued                   4227623                       # Number of instructions issued
system.cpu.iq.iqNonSpecInstsAdded                1089                       # Number of non-speculative instructions added to the IQ
system.cpu.iq.iqSquashedInstsExamined          876197                       # Number of squashed instructions iterated over during squash; mainly for profiling
system.cpu.iq.iqSquashedInstsIssued             18788                       # Number of squashed instructions issued
system.cpu.iq.iqSquashedNonSpecRemoved            357                       # Number of squashed non-spec instructions that were removed
system.cpu.iq.iqSquashedOperandsExamined      1298205                       # Number of squashed operands that are examined and possibly removed from graph
system.cpu.iq.issued_per_cycle::samples       2603556                       # Number of insts issued each cycle
system.cpu.iq.issued_per_cycle::mean         1.623788                       # Number of insts issued each cycle
system.cpu.iq.issued_per_cycle::stdev        1.663913                       # Number of insts issued each cycle
system.cpu.iq.issued_per_cycle::underflows            0      0.00%      0.00% # Number of insts issued each cycle
system.cpu.iq.issued_per_cycle::0             1166491     44.80%     44.80% # Number of insts issued each cycle
system.cpu.iq.issued_per_cycle::1              183708      7.06%     51.86% # Number of insts issued each cycle
system.cpu.iq.issued_per_cycle::2              311078     11.95%     63.81% # Number of insts issued each cycle
system.cpu.iq.issued_per_cycle::3              347357     13.34%     77.15% # Number of insts issued each cycle
system.cpu.iq.issued_per_cycle::4              594922     22.85%    100.00% # Number of insts issued each cycle
system.cpu.iq.issued_per_cycle::overflows            0      0.00%    100.00% # Number of insts issued each cycle
system.cpu.iq.issued_per_cycle::min_value            0                       # Number of insts issued each cycle
system.cpu.iq.issued_per_cycle::max_value            4                       # Number of insts issued each cycle
system.cpu.iq.issued_per_cycle::total         2603556                       # Number of insts issued each cycle
system.cpu.iq.rate                           1.535212                       # Inst issue rate
system.cpu.iq.vec_alu_accesses                      0                       # Number of vector alu accesses
system.cpu.iq.vec_inst_queue_reads                  0                       # Number of vector instruction queue reads
system.cpu.iq.vec_inst_queue_wakeup_accesses            0                       # Number of vector instruction queue wakeup accesses
system.cpu.iq.vec_inst_queue_writes                 0                       # Number of vector instruction queue writes
system.cpu.itb.rdAccesses                           0                       # TLB accesses on read requests
system.cpu.itb.rdMisses                             0                       # TLB misses on read requests
system.cpu.itb.wrAccesses                      251062                       # TLB accesses on write requests
system.cpu.itb.wrMisses                           310                       # TLB misses on write requests
system.cpu.memDep0.conflictingLoads             12164                       # Number of conflicting loads.
system.cpu.memDep0.conflictingStores             5183                       # Number of conflicting stores.
system.cpu.memDep0.insertedLoads               610929                       # Number of loads inserted to the mem dependence unit.
system.cpu.memDep0.insertedStores              203908                       # Number of stores inserted to the mem dependence unit.
system.cpu.misc_regfile_reads                 1572594                       # number of misc regfile reads
system.cpu.misc_regfile_writes                    675                       # number of misc regfile writes
system.cpu.numCycles                          2753771                       # number of cpu cycles simulated
system.cpu.numWorkItemsCompleted                    0                       # number of work items this cpu completed
system.cpu.numWorkItemsStarted                      0                       # number of work items this cpu started
system.cpu.process.numSyscalls                     56                       # Number of system calls
system.cpu.rename.BlockCycles                  839656                       # Number of cycles rename is blocking
system.cpu.rename.CommittedMaps               5044144                       # Number of HB maps that are committed
system.cpu.rename.FullRegisterEvents               47                       # Number of times there has been no free registers
system.cpu.rename.IQFullEvents                  49565                       # Number of times rename has blocked due to IQ full
system.cpu.rename.IdleCycles                   349882                       # Number of cycles rename is idle
system.cpu.rename.LQFullEvents                  16509                       # Number of times rename has blocked due to LQ full
system.cpu.rename.ROBFullEvents                  4847                       # Number of times rename has blocked due to ROB full
system.cpu.rename.RenameLookups              12198373                       # Number of register rename lookups that rename has made
system.cpu.rename.RenamedInsts                4681565                       # Number of instructions processed by rename
system.cpu.rename.RenamedOperands             6422552                       # Number of destination operands rename has renamed
system.cpu.rename.RunCycles                   1187535                       # Number of cycles rename is running
system.cpu.rename.SQFullEvents                  79195                       # Number of times rename has blocked due to SQ full
system.cpu.rename.SquashCycles                  23884                       # Number of cycles rename is squashing
system.cpu.rename.UnblockCycles                183143                       # Number of cycles rename is unblocking
system.cpu.rename.UndoneMaps                  1378385                       # Number of HB maps that are undone due to squashing
system.cpu.rename.fp_rename_lookups            148993                       # Number of floating rename lookups
system.cpu.rename.int_rename_lookups          7436697                       # Number of integer rename lookups
system.cpu.rename.serializeStallCycles          19456                       # count of cycles rename stalled for serializing inst
system.cpu.rename.serializingInsts                872                       # count of serializing insts renamed
system.cpu.rename.skidInsts                    214583                       # count of insts added to the skid buffer
system.cpu.rename.tempSerializingInsts            921                       # count of temporary serializing insts renamed
system.cpu.rob.rob_reads                      6301070                       # The number of ROB reads
system.cpu.rob.rob_writes                     9326066                       # The number of ROB writes
system.cpu.timesIdled                            1483                       # Number of times that the entire CPU went into an idle state and unscheduled itself
system.l2bus.snoop_filter.hit_multi_requests            9                       # Number of requests hitting in the snoop filter with multiple (>1) holders of the requested data.
system.l2bus.snoop_filter.hit_multi_snoops            0                       # Number of snoops hitting in the snoop filter with multiple (>1) holders of the requested data.
system.l2bus.snoop_filter.hit_single_requests        18173                       # Number of requests hitting in the snoop filter with a single holder of the requested data.
system.l2bus.snoop_filter.hit_single_snoops          428                       # Number of snoops hitting in the snoop filter with a single holder of the requested data.
system.l2bus.snoop_filter.tot_requests          37624                       # Total number of requests made to the snoop filter.
system.l2bus.snoop_filter.tot_snoops              428                       # Total number of snoops made to the snoop filter.
system.l2cache.prefetcher.num_hwpf_issued          669                       # number of hwpf issued
system.l2cache.prefetcher.pfBufferHit               0                       # number of redundant prefetches already in prefetch queue
system.l2cache.prefetcher.pfIdentified            669                       # number of prefetch candidates identified
system.l2cache.prefetcher.pfInCache                 0                       # number of redundant prefetches already in cache/mshr dropped
system.l2cache.prefetcher.pfRemovedFull             0                       # number of prefetches dropped due to prefetch queue size
system.l2cache.prefetcher.pfSpanPage               99                       # number of prefetches that crossed the page
system.membus.snoop_filter.hit_multi_requests            0                       # Number of requests hitting in the snoop filter with multiple (>1) holders of the requested data.
system.membus.snoop_filter.hit_multi_snoops            0                       # Number of snoops hitting in the snoop filter with multiple (>1) holders of the requested data.
system.membus.snoop_filter.hit_single_requests         9273                       # Number of requests hitting in the snoop filter with a single holder of the requested data.
system.membus.snoop_filter.hit_single_snoops            0                       # Number of snoops hitting in the snoop filter with a single holder of the requested data.
system.membus.snoop_filter.tot_requests         22666                       # Total number of requests made to the snoop filter.
system.membus.snoop_filter.tot_snoops               0                       # Total number of snoops made to the snoop filter.
system.membus.pwrStateResidencyTicks::UNDEFINED   1101508000                       # Cumulative time (in ticks) in various power states
system.membus.trans_dist::ReadResp              12026                       # Transaction distribution
system.membus.trans_dist::WritebackDirty         1318                       # Transaction distribution
system.membus.trans_dist::CleanEvict             7955                       # Transaction distribution
system.membus.trans_dist::ReadExReq              1367                       # Transaction distribution
system.membus.trans_dist::ReadExResp             1367                       # Transaction distribution
system.membus.trans_dist::ReadSharedReq         12026                       # Transaction distribution
system.membus.pkt_count_system.l2cache.mem_side::system.mem_ctrl.port        36059                       # Packet count per connected master and slave (bytes)
system.membus.pkt_count_system.l2cache.mem_side::total        36059                       # Packet count per connected master and slave (bytes)
system.membus.pkt_count::total                  36059                       # Packet count per connected master and slave (bytes)
system.membus.pkt_size_system.l2cache.mem_side::system.mem_ctrl.port       941504                       # Cumulative packet size per connected master and slave (bytes)
system.membus.pkt_size_system.l2cache.mem_side::total       941504                       # Cumulative packet size per connected master and slave (bytes)
system.membus.pkt_size::total                  941504                       # Cumulative packet size per connected master and slave (bytes)
system.membus.snoops                                0                       # Total snoops (count)
system.membus.snoopTraffic                          0                       # Total snoop traffic (bytes)
system.membus.snoop_fanout::samples             13393                       # Request fanout histogram
system.membus.snoop_fanout::mean                    0                       # Request fanout histogram
system.membus.snoop_fanout::stdev                   0                       # Request fanout histogram
system.membus.snoop_fanout::underflows              0      0.00%      0.00% # Request fanout histogram
system.membus.snoop_fanout::0                   13393    100.00%    100.00% # Request fanout histogram
system.membus.snoop_fanout::1                       0      0.00%    100.00% # Request fanout histogram
system.membus.snoop_fanout::overflows               0      0.00%    100.00% # Request fanout histogram
system.membus.snoop_fanout::min_value               0                       # Request fanout histogram
system.membus.snoop_fanout::max_value               0                       # Request fanout histogram
system.membus.snoop_fanout::total               13393                       # Request fanout histogram
system.membus.reqLayer2.occupancy            11202663                       # Layer occupancy (ticks)
system.membus.reqLayer2.utilization               1.0                       # Layer utilization (%)
system.membus.respLayer0.occupancy           29068237                       # Layer occupancy (ticks)
system.membus.respLayer0.utilization              2.6                       # Layer utilization (%)
system.l2bus.pwrStateResidencyTicks::UNDEFINED   1101508000                       # Cumulative time (in ticks) in various power states
system.l2bus.trans_dist::ReadResp               17344                       # Transaction distribution
system.l2bus.trans_dist::WritebackDirty          4116                       # Transaction distribution
system.l2bus.trans_dist::CleanEvict             23416                       # Transaction distribution
system.l2bus.trans_dist::HardPFReq                936                       # Transaction distribution
system.l2bus.trans_dist::ReadExReq               2108                       # Transaction distribution
system.l2bus.trans_dist::ReadExResp              2108                       # Transaction distribution
system.l2bus.trans_dist::ReadSharedReq          17344                       # Transaction distribution
system.l2bus.pkt_count_system.cpu.icache.mem_side::system.l2cache.cpu_side         7500                       # Packet count per connected master and slave (bytes)
system.l2bus.pkt_count_system.cpu.dcache.mem_side::system.l2cache.cpu_side        49574                       # Packet count per connected master and slave (bytes)
system.l2bus.pkt_count::total                   57074                       # Packet count per connected master and slave (bytes)
system.l2bus.pkt_size_system.cpu.icache.mem_side::system.l2cache.cpu_side       165376                       # Cumulative packet size per connected master and slave (bytes)
system.l2bus.pkt_size_system.cpu.dcache.mem_side::system.l2cache.cpu_side      1258496                       # Cumulative packet size per connected master and slave (bytes)
system.l2bus.pkt_size::total                  1423872                       # Cumulative packet size per connected master and slave (bytes)
system.l2bus.snoops                             10298                       # Total snoops (count)
system.l2bus.snoopTraffic                       84480                       # Total snoop traffic (bytes)
system.l2bus.snoop_fanout::samples              29748                       # Request fanout histogram
system.l2bus.snoop_fanout::mean              0.014724                       # Request fanout histogram
system.l2bus.snoop_fanout::stdev             0.120447                       # Request fanout histogram
system.l2bus.snoop_fanout::underflows               0      0.00%      0.00% # Request fanout histogram
system.l2bus.snoop_fanout::0                    29310     98.53%     98.53% # Request fanout histogram
system.l2bus.snoop_fanout::1                      438      1.47%    100.00% # Request fanout histogram
system.l2bus.snoop_fanout::2                        0      0.00%    100.00% # Request fanout histogram
system.l2bus.snoop_fanout::overflows                0      0.00%    100.00% # Request fanout histogram
system.l2bus.snoop_fanout::min_value                0                       # Request fanout histogram
system.l2bus.snoop_fanout::max_value                1                       # Request fanout histogram
system.l2bus.snoop_fanout::total                29748                       # Request fanout histogram
system.l2bus.respLayer1.occupancy            20239599                       # Layer occupancy (ticks)
system.l2bus.respLayer1.utilization               1.8                       # Layer utilization (%)
system.l2bus.reqLayer0.occupancy             18734510                       # Layer occupancy (ticks)
system.l2bus.reqLayer0.utilization                1.7                       # Layer utilization (%)
system.l2bus.respLayer0.occupancy             3103200                       # Layer occupancy (ticks)
system.l2bus.respLayer0.utilization               0.3                       # Layer utilization (%)
system.clk_domain.clock                           400                       # Clock period in ticks
system.clk_domain.voltage_domain.voltage            1                       # Voltage in Volts
system.cpu.pwrStateResidencyTicks::ON      1101508000                       # Cumulative time (in ticks) in various power states
system.cpu.icache.pwrStateResidencyTicks::UNDEFINED   1101508000                       # Cumulative time (in ticks) in various power states
system.cpu.icache.demand_hits::.cpu.inst       247716                       # number of demand (read+write) hits
system.cpu.icache.demand_hits::total           247716                       # number of demand (read+write) hits
system.cpu.icache.overall_hits::.cpu.inst       247716                       # number of overall hits
system.cpu.icache.overall_hits::total          247716                       # number of overall hits
system.cpu.icache.demand_misses::.cpu.inst         3273                       # number of demand (read+write) misses
system.cpu.icache.demand_misses::total           3273                       # number of demand (read+write) misses
system.cpu.icache.overall_misses::.cpu.inst         3273                       # number of overall misses
system.cpu.icache.overall_misses::total          3273                       # number of overall misses
system.cpu.icache.demand_miss_latency::.cpu.inst    165522400                       # number of demand (read+write) miss cycles
system.cpu.icache.demand_miss_latency::total    165522400                       # number of demand (read+write) miss cycles
system.cpu.icache.overall_miss_latency::.cpu.inst    165522400                       # number of overall miss cycles
system.cpu.icache.overall_miss_latency::total    165522400                       # number of overall miss cycles
system.cpu.icache.demand_accesses::.cpu.inst       250989                       # number of demand (read+write) accesses
system.cpu.icache.demand_accesses::total       250989                       # number of demand (read+write) accesses
system.cpu.icache.overall_accesses::.cpu.inst       250989                       # number of overall (read+write) accesses
system.cpu.icache.overall_accesses::total       250989                       # number of overall (read+write) accesses
system.cpu.icache.demand_miss_rate::.cpu.inst     0.013040                       # miss rate for demand accesses
system.cpu.icache.demand_miss_rate::total     0.013040                       # miss rate for demand accesses
system.cpu.icache.overall_miss_rate::.cpu.inst     0.013040                       # miss rate for overall accesses
system.cpu.icache.overall_miss_rate::total     0.013040                       # miss rate for overall accesses
system.cpu.icache.demand_avg_miss_latency::.cpu.inst 50572.074549                       # average overall miss latency
system.cpu.icache.demand_avg_miss_latency::total 50572.074549                       # average overall miss latency
system.cpu.icache.overall_avg_miss_latency::.cpu.inst 50572.074549                       # average overall miss latency
system.cpu.icache.overall_avg_miss_latency::total 50572.074549                       # average overall miss latency
system.cpu.icache.blocked_cycles::no_mshrs           39                       # number of cycles access was blocked
system.cpu.icache.blocked_cycles::no_targets            0                       # number of cycles access was blocked
system.cpu.icache.blocked::no_mshrs                 2                       # number of cycles access was blocked
system.cpu.icache.blocked::no_targets               0                       # number of cycles access was blocked
system.cpu.icache.avg_blocked_cycles::no_mshrs    19.500000                       # average number of cycles each access was blocked
system.cpu.icache.avg_blocked_cycles::no_targets          nan                       # average number of cycles each access was blocked
system.cpu.icache.demand_mshr_hits::.cpu.inst          687                       # number of demand (read+write) MSHR hits
system.cpu.icache.demand_mshr_hits::total          687                       # number of demand (read+write) MSHR hits
system.cpu.icache.overall_mshr_hits::.cpu.inst          687                       # number of overall MSHR hits
system.cpu.icache.overall_mshr_hits::total          687                       # number of overall MSHR hits
system.cpu.icache.demand_mshr_misses::.cpu.inst         2586                       # number of demand (read+write) MSHR misses
system.cpu.icache.demand_mshr_misses::total         2586                       # number of demand (read+write) MSHR misses
system.cpu.icache.overall_mshr_misses::.cpu.inst         2586                       # number of overall MSHR misses
system.cpu.icache.overall_mshr_misses::total         2586                       # number of overall MSHR misses
system.cpu.icache.demand_mshr_miss_latency::.cpu.inst    132376000                       # number of demand (read+write) MSHR miss cycles
system.cpu.icache.demand_mshr_miss_latency::total    132376000                       # number of demand (read+write) MSHR miss cycles
system.cpu.icache.overall_mshr_miss_latency::.cpu.inst    132376000                       # number of overall MSHR miss cycles
system.cpu.icache.overall_mshr_miss_latency::total    132376000                       # number of overall MSHR miss cycles
system.cpu.icache.demand_mshr_miss_rate::.cpu.inst     0.010303                       # mshr miss rate for demand accesses
system.cpu.icache.demand_mshr_miss_rate::total     0.010303                       # mshr miss rate for demand accesses
system.cpu.icache.overall_mshr_miss_rate::.cpu.inst     0.010303                       # mshr miss rate for overall accesses
system.cpu.icache.overall_mshr_miss_rate::total     0.010303                       # mshr miss rate for overall accesses
system.cpu.icache.demand_avg_mshr_miss_latency::.cpu.inst 51189.481825                       # average overall mshr miss latency
system.cpu.icache.demand_avg_mshr_miss_latency::total 51189.481825                       # average overall mshr miss latency
system.cpu.icache.overall_avg_mshr_miss_latency::.cpu.inst 51189.481825                       # average overall mshr miss latency
system.cpu.icache.overall_avg_mshr_miss_latency::total 51189.481825                       # average overall mshr miss latency
system.cpu.icache.replacements                   2330                       # number of replacements
system.cpu.icache.ReadReq_hits::.cpu.inst       247716                       # number of ReadReq hits
system.cpu.icache.ReadReq_hits::total          247716                       # number of ReadReq hits
system.cpu.icache.ReadReq_misses::.cpu.inst         3273                       # number of ReadReq misses
system.cpu.icache.ReadReq_misses::total          3273                       # number of ReadReq misses
system.cpu.icache.ReadReq_miss_latency::.cpu.inst    165522400                       # number of ReadReq miss cycles
system.cpu.icache.ReadReq_miss_latency::total    165522400                       # number of ReadReq miss cycles
system.cpu.icache.ReadReq_accesses::.cpu.inst       250989                       # number of ReadReq accesses(hits+misses)
system.cpu.icache.ReadReq_accesses::total       250989                       # number of ReadReq accesses(hits+misses)
system.cpu.icache.ReadReq_miss_rate::.cpu.inst     0.013040                       # miss rate for ReadReq accesses
system.cpu.icache.ReadReq_miss_rate::total     0.013040                       # miss rate for ReadReq accesses
system.cpu.icache.ReadReq_avg_miss_latency::.cpu.inst 50572.074549                       # average ReadReq miss latency
system.cpu.icache.ReadReq_avg_miss_latency::total 50572.074549                       # average ReadReq miss latency
system.cpu.icache.ReadReq_mshr_hits::.cpu.inst          687                       # number of ReadReq MSHR hits
system.cpu.icache.ReadReq_mshr_hits::total          687                       # number of ReadReq MSHR hits
system.cpu.icache.ReadReq_mshr_misses::.cpu.inst         2586                       # number of ReadReq MSHR misses
system.cpu.icache.ReadReq_mshr_misses::total         2586                       # number of ReadReq MSHR misses
system.cpu.icache.ReadReq_mshr_miss_latency::.cpu.inst    132376000                       # number of ReadReq MSHR miss cycles
system.cpu.icache.ReadReq_mshr_miss_latency::total    132376000                       # number of ReadReq MSHR miss cycles
system.cpu.icache.ReadReq_mshr_miss_rate::.cpu.inst     0.010303                       # mshr miss rate for ReadReq accesses
system.cpu.icache.ReadReq_mshr_miss_rate::total     0.010303                       # mshr miss rate for ReadReq accesses
system.cpu.icache.ReadReq_avg_mshr_miss_latency::.cpu.inst 51189.481825                       # average ReadReq mshr miss latency
system.cpu.icache.ReadReq_avg_mshr_miss_latency::total 51189.481825                       # average ReadReq mshr miss latency
system.cpu.icache.prefetcher.pwrStateResidencyTicks::UNDEFINED   1101508000                       # Cumulative time (in ticks) in various power states
system.cpu.icache.tags.pwrStateResidencyTicks::UNDEFINED   1101508000                       # Cumulative time (in ticks) in various power states
system.cpu.icache.tags.tagsinuse           253.499923                       # Cycle average of tags in use
system.cpu.icache.tags.total_refs              215647                       # Total number of references to valid blocks.
system.cpu.icache.tags.sampled_refs              2330                       # Sample count of references to valid blocks.
system.cpu.icache.tags.avg_refs             92.552361                       # Average number of references to valid blocks.
system.cpu.icache.tags.warmup_cycle             66400                       # Cycle when the warmup percentage was hit.
system.cpu.icache.tags.occ_blocks::.cpu.inst   253.499923                       # Average occupied blocks per requestor
system.cpu.icache.tags.occ_percent::.cpu.inst     0.990234                       # Average percentage of cache occupancy
system.cpu.icache.tags.occ_percent::total     0.990234                       # Average percentage of cache occupancy
system.cpu.icache.tags.occ_task_id_blocks::1024          256                       # Occupied blocks per task id
system.cpu.icache.tags.age_task_id_blocks_1024::0           71                       # Occupied blocks per task id
system.cpu.icache.tags.age_task_id_blocks_1024::1          143                       # Occupied blocks per task id
system.cpu.icache.tags.age_task_id_blocks_1024::2           38                       # Occupied blocks per task id
system.cpu.icache.tags.age_task_id_blocks_1024::3            4                       # Occupied blocks per task id
system.cpu.icache.tags.occ_task_id_percent::1024            1                       # Percentage of cache occupancy per task id
system.cpu.icache.tags.tag_accesses            504564                       # Number of tag accesses
system.cpu.icache.tags.data_accesses           504564                       # Number of data accesses
system.cpu.dtb.walker.pwrStateResidencyTicks::UNDEFINED   1101508000                       # Cumulative time (in ticks) in various power states
system.cpu.interrupts.clk_domain.clock           6400                       # Clock period in ticks
system.cpu.itb.walker.pwrStateResidencyTicks::UNDEFINED   1101508000                       # Cumulative time (in ticks) in various power states
system.cpu.dcache.pwrStateResidencyTicks::UNDEFINED   1101508000                       # Cumulative time (in ticks) in various power states
system.cpu.dcache.demand_hits::.cpu.data       677395                       # number of demand (read+write) hits
system.cpu.dcache.demand_hits::total           677395                       # number of demand (read+write) hits
system.cpu.dcache.overall_hits::.cpu.data       677395                       # number of overall hits
system.cpu.dcache.overall_hits::total          677395                       # number of overall hits
system.cpu.dcache.demand_misses::.cpu.data        34381                       # number of demand (read+write) misses
system.cpu.dcache.demand_misses::total          34381                       # number of demand (read+write) misses
system.cpu.dcache.overall_misses::.cpu.data        34381                       # number of overall misses
system.cpu.dcache.overall_misses::total         34381                       # number of overall misses
system.cpu.dcache.demand_miss_latency::.cpu.data   1674542400                       # number of demand (read+write) miss cycles
system.cpu.dcache.demand_miss_latency::total   1674542400                       # number of demand (read+write) miss cycles
system.cpu.dcache.overall_miss_latency::.cpu.data   1674542400                       # number of overall miss cycles
system.cpu.dcache.overall_miss_latency::total   1674542400                       # number of overall miss cycles
system.cpu.dcache.demand_accesses::.cpu.data       711776                       # number of demand (read+write) accesses
system.cpu.dcache.demand_accesses::total       711776                       # number of demand (read+write) accesses
system.cpu.dcache.overall_accesses::.cpu.data       711776                       # number of overall (read+write) accesses
system.cpu.dcache.overall_accesses::total       711776                       # number of overall (read+write) accesses
system.cpu.dcache.demand_miss_rate::.cpu.data     0.048303                       # miss rate for demand accesses
system.cpu.dcache.demand_miss_rate::total     0.048303                       # miss rate for demand accesses
system.cpu.dcache.overall_miss_rate::.cpu.data     0.048303                       # miss rate for overall accesses
system.cpu.dcache.overall_miss_rate::total     0.048303                       # miss rate for overall accesses
system.cpu.dcache.demand_avg_miss_latency::.cpu.data 48705.459411                       # average overall miss latency
system.cpu.dcache.demand_avg_miss_latency::total 48705.459411                       # average overall miss latency
system.cpu.dcache.overall_avg_miss_latency::.cpu.data 48705.459411                       # average overall miss latency
system.cpu.dcache.overall_avg_miss_latency::total 48705.459411                       # average overall miss latency
system.cpu.dcache.blocked_cycles::no_mshrs        29399                       # number of cycles access was blocked
system.cpu.dcache.blocked_cycles::no_targets          138                       # number of cycles access was blocked
system.cpu.dcache.blocked::no_mshrs               733                       # number of cycles access was blocked
system.cpu.dcache.blocked::no_targets               1                       # number of cycles access was blocked
system.cpu.dcache.avg_blocked_cycles::no_mshrs    40.107776                       # average number of cycles each access was blocked
system.cpu.dcache.avg_blocked_cycles::no_targets          138                       # average number of cycles each access was blocked
system.cpu.dcache.unused_prefetches              1745                       # number of HardPF blocks evicted w/o reference
system.cpu.dcache.writebacks::.writebacks         2798                       # number of writebacks
system.cpu.dcache.writebacks::total              2798                       # number of writebacks
system.cpu.dcache.demand_mshr_hits::.cpu.data        21944                       # number of demand (read+write) MSHR hits
system.cpu.dcache.demand_mshr_hits::total        21944                       # number of demand (read+write) MSHR hits
system.cpu.dcache.overall_mshr_hits::.cpu.data        21944                       # number of overall MSHR hits
system.cpu.dcache.overall_mshr_hits::total        21944                       # number of overall MSHR hits
system.cpu.dcache.demand_mshr_misses::.cpu.data        12437                       # number of demand (read+write) MSHR misses
system.cpu.dcache.demand_mshr_misses::total        12437                       # number of demand (read+write) MSHR misses
system.cpu.dcache.overall_mshr_misses::.cpu.data        12437                       # number of overall MSHR misses
system.cpu.dcache.overall_mshr_misses::.cpu.dcache.prefetcher         4429                       # number of overall MSHR misses
system.cpu.dcache.overall_mshr_misses::total        16866                       # number of overall MSHR misses
system.cpu.dcache.demand_mshr_miss_latency::.cpu.data    574878000                       # number of demand (read+write) MSHR miss cycles
system.cpu.dcache.demand_mshr_miss_latency::total    574878000                       # number of demand (read+write) MSHR miss cycles
system.cpu.dcache.overall_mshr_miss_latency::.cpu.data    574878000                       # number of overall MSHR miss cycles
system.cpu.dcache.overall_mshr_miss_latency::.cpu.dcache.prefetcher    250589569                       # number of overall MSHR miss cycles
system.cpu.dcache.overall_mshr_miss_latency::total    825467569                       # number of overall MSHR miss cycles
system.cpu.dcache.demand_mshr_miss_rate::.cpu.data     0.017473                       # mshr miss rate for demand accesses
system.cpu.dcache.demand_mshr_miss_rate::total     0.017473                       # mshr miss rate for demand accesses
system.cpu.dcache.overall_mshr_miss_rate::.cpu.data     0.017473                       # mshr miss rate for overall accesses
system.cpu.dcache.overall_mshr_miss_rate::.cpu.dcache.prefetcher          inf                       # mshr miss rate for overall accesses
system.cpu.dcache.overall_mshr_miss_rate::total     0.023696                       # mshr miss rate for overall accesses
system.cpu.dcache.demand_avg_mshr_miss_latency::.cpu.data 46223.204953                       # average overall mshr miss latency
system.cpu.dcache.demand_avg_mshr_miss_latency::total 46223.204953                       # average overall mshr miss latency
system.cpu.dcache.overall_avg_mshr_miss_latency::.cpu.data 46223.204953                       # average overall mshr miss latency
system.cpu.dcache.overall_avg_mshr_miss_latency::.cpu.dcache.prefetcher 56579.265974                       # average overall mshr miss latency
system.cpu.dcache.overall_avg_mshr_miss_latency::total 48942.699455                       # average overall mshr miss latency
system.cpu.dcache.replacements                  15842                       # number of replacements
system.cpu.dcache.ReadReq_hits::.cpu.data       504864                       # number of ReadReq hits
system.cpu.dcache.ReadReq_hits::total          504864                       # number of ReadReq hits
system.cpu.dcache.ReadReq_misses::.cpu.data        32232                       # number of ReadReq misses
system.cpu.dcache.ReadReq_misses::total         32232                       # number of ReadReq misses
system.cpu.dcache.ReadReq_miss_latency::.cpu.data   1567752800                       # number of ReadReq miss cycles
system.cpu.dcache.ReadReq_miss_latency::total   1567752800                       # number of ReadReq miss cycles
system.cpu.dcache.ReadReq_accesses::.cpu.data       537096                       # number of ReadReq accesses(hits+misses)
system.cpu.dcache.ReadReq_accesses::total       537096                       # number of ReadReq accesses(hits+misses)
system.cpu.dcache.ReadReq_miss_rate::.cpu.data     0.060012                       # miss rate for ReadReq accesses
system.cpu.dcache.ReadReq_miss_rate::total     0.060012                       # miss rate for ReadReq accesses
system.cpu.dcache.ReadReq_avg_miss_latency::.cpu.data 48639.637627                       # average ReadReq miss latency
system.cpu.dcache.ReadReq_avg_miss_latency::total 48639.637627                       # average ReadReq miss latency
system.cpu.dcache.ReadReq_mshr_hits::.cpu.data        21903                       # number of ReadReq MSHR hits
system.cpu.dcache.ReadReq_mshr_hits::total        21903                       # number of ReadReq MSHR hits
system.cpu.dcache.ReadReq_mshr_misses::.cpu.data        10329                       # number of ReadReq MSHR misses
system.cpu.dcache.ReadReq_mshr_misses::total        10329                       # number of ReadReq MSHR misses
system.cpu.dcache.ReadReq_mshr_miss_latency::.cpu.data    471771200                       # number of ReadReq MSHR miss cycles
system.cpu.dcache.ReadReq_mshr_miss_latency::total    471771200                       # number of ReadReq MSHR miss cycles
system.cpu.dcache.ReadReq_mshr_miss_rate::.cpu.data     0.019231                       # mshr miss rate for ReadReq accesses
system.cpu.dcache.ReadReq_mshr_miss_rate::total     0.019231                       # mshr miss rate for ReadReq accesses
system.cpu.dcache.ReadReq_avg_mshr_miss_latency::.cpu.data 45674.431213                       # average ReadReq mshr miss latency
system.cpu.dcache.ReadReq_avg_mshr_miss_latency::total 45674.431213                       # average ReadReq mshr miss latency
system.cpu.dcache.WriteReq_hits::.cpu.data       172531                       # number of WriteReq hits
system.cpu.dcache.WriteReq_hits::total         172531                       # number of WriteReq hits
system.cpu.dcache.WriteReq_misses::.cpu.data         2149                       # number of WriteReq misses
system.cpu.dcache.WriteReq_misses::total         2149                       # number of WriteReq misses
system.cpu.dcache.WriteReq_miss_latency::.cpu.data    106789600                       # number of WriteReq miss cycles
system.cpu.dcache.WriteReq_miss_latency::total    106789600                       # number of WriteReq miss cycles
system.cpu.dcache.WriteReq_accesses::.cpu.data       174680                       # number of WriteReq accesses(hits+misses)
system.cpu.dcache.WriteReq_accesses::total       174680                       # number of WriteReq accesses(hits+misses)
system.cpu.dcache.WriteReq_miss_rate::.cpu.data     0.012302                       # miss rate for WriteReq accesses
system.cpu.dcache.WriteReq_miss_rate::total     0.012302                       # miss rate for WriteReq accesses
system.cpu.dcache.WriteReq_avg_miss_latency::.cpu.data 49692.694276                       # average WriteReq miss latency
system.cpu.dcache.WriteReq_avg_miss_latency::total 49692.694276                       # average WriteReq miss latency
system.cpu.dcache.WriteReq_mshr_hits::.cpu.data           41                       # number of WriteReq MSHR hits
system.cpu.dcache.WriteReq_mshr_hits::total           41                       # number of WriteReq MSHR hits
system.cpu.dcache.WriteReq_mshr_misses::.cpu.data         2108                       # number of WriteReq MSHR misses
system.cpu.dcache.WriteReq_mshr_misses::total         2108                       # number of WriteReq MSHR misses
system.cpu.dcache.WriteReq_mshr_miss_latency::.cpu.data    103106800                       # number of WriteReq MSHR miss cycles
[...]
system.l2cache.overall_mshr_miss_rate::.cpu.data     0.532294                       # mshr miss rate for overall accesses
system.l2cache.overall_mshr_miss_rate::.cpu.dcache.prefetcher     0.761364                       # mshr miss rate for overall accesses
system.l2cache.overall_mshr_miss_rate::.l2cache.prefetcher          inf                       # mshr miss rate for overall accesses
system.l2cache.overall_mshr_miss_rate::total     0.520774                       # mshr miss rate for overall accesses
system.l2cache.demand_avg_mshr_miss_latency::.cpu.inst 59142.014742                       # average overall mshr miss latency
system.l2cache.demand_avg_mshr_miss_latency::.cpu.data 60276.150628                       # average overall mshr miss latency
system.l2cache.demand_avg_mshr_miss_latency::.cpu.dcache.prefetcher 59216.940299                       # average overall mshr miss latency
system.l2cache.demand_avg_mshr_miss_latency::total 59529.221599                       # average overall mshr miss latency
system.l2cache.overall_avg_mshr_miss_latency::.cpu.inst 59142.014742                       # average overall mshr miss latency
system.l2cache.overall_avg_mshr_miss_latency::.cpu.data 60276.150628                       # average overall mshr miss latency
system.l2cache.overall_avg_mshr_miss_latency::.cpu.dcache.prefetcher 59216.940299                       # average overall mshr miss latency
system.l2cache.overall_avg_mshr_miss_latency::.l2cache.prefetcher 58284.714286                       # average overall mshr miss latency
system.l2cache.overall_avg_mshr_miss_latency::total 59505.255846                       # average overall mshr miss latency
system.l2cache.replacements                       744                       # number of replacements
system.l2cache.WritebackDirty_hits::.writebacks          211                       # number of WritebackDirty hits
system.l2cache.WritebackDirty_hits::total          211                       # number of WritebackDirty hits
system.l2cache.WritebackDirty_accesses::.writebacks          211                       # number of WritebackDirty accesses(hits+misses)
system.l2cache.WritebackDirty_accesses::total          211                       # number of WritebackDirty accesses(hits+misses)
system.l2cache.CleanEvict_mshr_misses::.writebacks           18                       # number of CleanEvict MSHR misses
system.l2cache.CleanEvict_mshr_misses::total           18                       # number of CleanEvict MSHR misses
system.l2cache.CleanEvict_mshr_miss_rate::.writebacks          inf                       # mshr miss rate for CleanEvict accesses
system.l2cache.CleanEvict_mshr_miss_rate::total          inf                       # mshr miss rate for CleanEvict accesses
system.l2cache.HardPFReq_mshr_misses::.l2cache.prefetcher           14                       # number of HardPFReq MSHR misses
system.l2cache.HardPFReq_mshr_misses::total           14                       # number of HardPFReq MSHR misses
system.l2cache.HardPFReq_mshr_miss_latency::.l2cache.prefetcher       815986                       # number of HardPFReq MSHR miss cycles
system.l2cache.HardPFReq_mshr_miss_latency::total       815986                       # number of HardPFReq MSHR miss cycles
system.l2cache.HardPFReq_mshr_miss_rate::.l2cache.prefetcher          inf                       # mshr miss rate for HardPFReq accesses
system.l2cache.HardPFReq_mshr_miss_rate::total          inf                       # mshr miss rate for HardPFReq accesses
system.l2cache.HardPFReq_avg_mshr_miss_latency::.l2cache.prefetcher 58284.714286                       # average HardPFReq mshr miss latency
system.l2cache.HardPFReq_avg_mshr_miss_latency::total 58284.714286                       # average HardPFReq mshr miss latency
system.l2cache.UpgradeReq_hits::.cpu.data            1                       # number of UpgradeReq hits
system.l2cache.UpgradeReq_hits::total               1                       # number of UpgradeReq hits
system.l2cache.UpgradeReq_accesses::.cpu.data            1                       # number of UpgradeReq accesses(hits+misses)
system.l2cache.UpgradeReq_accesses::total            1                       # number of UpgradeReq accesses(hits+misses)
system.l2cache.ReadExReq_hits::.cpu.data           22                       # number of ReadExReq hits
system.l2cache.ReadExReq_hits::total               22                       # number of ReadExReq hits
system.l2cache.ReadExReq_misses::.cpu.data           85                       # number of ReadExReq misses
system.l2cache.ReadExReq_misses::total             85                       # number of ReadExReq misses
system.l2cache.ReadExReq_miss_latency::.cpu.data      5883600                       # number of ReadExReq miss cycles
system.l2cache.ReadExReq_miss_latency::total      5883600                       # number of ReadExReq miss cycles
system.l2cache.ReadExReq_accesses::.cpu.data          107                       # number of ReadExReq accesses(hits+misses)
system.l2cache.ReadExReq_accesses::total          107                       # number of ReadExReq accesses(hits+misses)
system.l2cache.ReadExReq_miss_rate::.cpu.data     0.794393                       # miss rate for ReadExReq accesses
system.l2cache.ReadExReq_miss_rate::total     0.794393                       # miss rate for ReadExReq accesses
system.l2cache.ReadExReq_avg_miss_latency::.cpu.data 69218.823529                       # average ReadExReq miss latency
system.l2cache.ReadExReq_avg_miss_latency::total 69218.823529                       # average ReadExReq miss latency
system.l2cache.ReadExReq_mshr_misses::.cpu.data           85                       # number of ReadExReq MSHR misses
system.l2cache.ReadExReq_mshr_misses::total           85                       # number of ReadExReq MSHR misses
system.l2cache.ReadExReq_mshr_miss_latency::.cpu.data      5203600                       # number of ReadExReq MSHR miss cycles
system.l2cache.ReadExReq_mshr_miss_latency::total      5203600                       # number of ReadExReq MSHR miss cycles
system.l2cache.ReadExReq_mshr_miss_rate::.cpu.data     0.794393                       # mshr miss rate for ReadExReq accesses
system.l2cache.ReadExReq_mshr_miss_rate::total     0.794393                       # mshr miss rate for ReadExReq accesses
system.l2cache.ReadExReq_avg_mshr_miss_latency::.cpu.data 61218.823529                       # average ReadExReq mshr miss latency
system.l2cache.ReadExReq_avg_mshr_miss_latency::total 61218.823529                       # average ReadExReq mshr miss latency
system.l2cache.ReadSharedReq_hits::.cpu.inst          452                       # number of ReadSharedReq hits
system.l2cache.ReadSharedReq_hits::.cpu.data          187                       # number of ReadSharedReq hits
system.l2cache.ReadSharedReq_hits::.cpu.dcache.prefetcher           21                       # number of ReadSharedReq hits
system.l2cache.ReadSharedReq_hits::total          660                       # number of ReadSharedReq hits
system.l2cache.ReadSharedReq_misses::.cpu.inst          407                       # number of ReadSharedReq misses
system.l2cache.ReadSharedReq_misses::.cpu.data          155                       # number of ReadSharedReq misses
system.l2cache.ReadSharedReq_misses::.cpu.dcache.prefetcher           67                       # number of ReadSharedReq misses
system.l2cache.ReadSharedReq_misses::total          629                       # number of ReadSharedReq misses
system.l2cache.ReadSharedReq_miss_latency::.cpu.inst     27326800                       # number of ReadSharedReq miss cycles
system.l2cache.ReadSharedReq_miss_latency::.cpu.data     10490800                       # number of ReadSharedReq miss cycles
system.l2cache.ReadSharedReq_miss_latency::.cpu.dcache.prefetcher      4503535                       # number of ReadSharedReq miss cycles
system.l2cache.ReadSharedReq_miss_latency::total     42321135                       # number of ReadSharedReq miss cycles
system.l2cache.ReadSharedReq_accesses::.cpu.inst          859                       # number of ReadSharedReq accesses(hits+misses)
system.l2cache.ReadSharedReq_accesses::.cpu.data          342                       # number of ReadSharedReq accesses(hits+misses)
system.l2cache.ReadSharedReq_accesses::.cpu.dcache.prefetcher           88                       # number of ReadSharedReq accesses(hits+misses)
system.l2cache.ReadSharedReq_accesses::total         1289                       # number of ReadSharedReq accesses(hits+misses)
system.l2cache.ReadSharedReq_miss_rate::.cpu.inst     0.473807                       # miss rate for ReadSharedReq accesses
system.l2cache.ReadSharedReq_miss_rate::.cpu.data     0.453216                       # miss rate for ReadSharedReq accesses
system.l2cache.ReadSharedReq_miss_rate::.cpu.dcache.prefetcher     0.761364                       # miss rate for ReadSharedReq accesses
system.l2cache.ReadSharedReq_miss_rate::total     0.487975                       # miss rate for ReadSharedReq accesses
system.l2cache.ReadSharedReq_avg_miss_latency::.cpu.inst 67142.014742                       # average ReadSharedReq miss latency
system.l2cache.ReadSharedReq_avg_miss_latency::.cpu.data 67682.580645                       # average ReadSharedReq miss latency
system.l2cache.ReadSharedReq_avg_miss_latency::.cpu.dcache.prefetcher 67216.940299                       # average ReadSharedReq miss latency
system.l2cache.ReadSharedReq_avg_miss_latency::total 67283.203498                       # average ReadSharedReq miss latency
system.l2cache.ReadSharedReq_mshr_hits::.cpu.data            1                       # number of ReadSharedReq MSHR hits
system.l2cache.ReadSharedReq_mshr_hits::total            1                       # number of ReadSharedReq MSHR hits
system.l2cache.ReadSharedReq_mshr_misses::.cpu.inst          407                       # number of ReadSharedReq MSHR misses
system.l2cache.ReadSharedReq_mshr_misses::.cpu.data          154                       # number of ReadSharedReq MSHR misses
system.l2cache.ReadSharedReq_mshr_misses::.cpu.dcache.prefetcher           67                       # number of ReadSharedReq MSHR misses
system.l2cache.ReadSharedReq_mshr_misses::total          628                       # number of ReadSharedReq MSHR misses
system.l2cache.ReadSharedReq_mshr_miss_latency::.cpu.inst     24070800                       # number of ReadSharedReq MSHR miss cycles
system.l2cache.ReadSharedReq_mshr_miss_latency::.cpu.data      9202400                       # number of ReadSharedReq MSHR miss cycles
system.l2cache.ReadSharedReq_mshr_miss_latency::.cpu.dcache.prefetcher      3967535                       # number of ReadSharedReq MSHR miss cycles
system.l2cache.ReadSharedReq_mshr_miss_latency::total     37240735                       # number of ReadSharedReq MSHR miss cycles
system.l2cache.ReadSharedReq_mshr_miss_rate::.cpu.inst     0.473807                       # mshr miss rate for ReadSharedReq accesses
system.l2cache.ReadSharedReq_mshr_miss_rate::.cpu.data     0.450292                       # mshr miss rate for ReadSharedReq accesses
system.l2cache.ReadSharedReq_mshr_miss_rate::.cpu.dcache.prefetcher     0.761364                       # mshr miss rate for ReadSharedReq accesses
system.l2cache.ReadSharedReq_mshr_miss_rate::total     0.487199                       # mshr miss rate for ReadSharedReq accesses
system.l2cache.ReadSharedReq_avg_mshr_miss_latency::.cpu.inst 59142.014742                       # average ReadSharedReq mshr miss latency
system.l2cache.ReadSharedReq_avg_mshr_miss_latency::.cpu.data 59755.844156                       # average ReadSharedReq mshr miss latency
system.l2cache.ReadSharedReq_avg_mshr_miss_latency::.cpu.dcache.prefetcher 59216.940299                       # average ReadSharedReq mshr miss latency
system.l2cache.ReadSharedReq_avg_mshr_miss_latency::total 59300.533439                       # average ReadSharedReq mshr miss latency
system.l2cache.prefetcher.pwrStateResidencyTicks::UNDEFINED    363556800                       # Cumulative time (in ticks) in various power states
system.l2cache.tags.pwrStateResidencyTicks::UNDEFINED    363556800                       # Cumulative time (in ticks) in various power states
system.l2cache.tags.tagsinuse                    4096                       # Cycle average of tags in use
system.l2cache.tags.total_refs                  15064                       # Total number of references to valid blocks.
system.l2cache.tags.sampled_refs                 4840                       # Sample count of references to valid blocks.
system.l2cache.tags.avg_refs                 3.112397                       # Average number of references to valid blocks.
system.l2cache.tags.warmup_cycle                    0                       # Cycle when the warmup percentage was hit.
system.l2cache.tags.occ_blocks::.writebacks    41.162262                       # Average occupied blocks per requestor
system.l2cache.tags.occ_blocks::.cpu.inst  1103.529825                       # Average occupied blocks per requestor
system.l2cache.tags.occ_blocks::.cpu.data  1792.726852                       # Average occupied blocks per requestor
system.l2cache.tags.occ_blocks::.cpu.dcache.prefetcher   966.515739                       # Average occupied blocks per requestor
system.l2cache.tags.occ_blocks::.l2cache.prefetcher   192.065322                       # Average occupied blocks per requestor
system.l2cache.tags.occ_percent::.writebacks     0.010049                       # Average percentage of cache occupancy
system.l2cache.tags.occ_percent::.cpu.inst     0.269416                       # Average percentage of cache occupancy
system.l2cache.tags.occ_percent::.cpu.data     0.437677                       # Average percentage of cache occupancy
system.l2cache.tags.occ_percent::.cpu.dcache.prefetcher     0.235966                       # Average percentage of cache occupancy
system.l2cache.tags.occ_percent::.l2cache.prefetcher     0.046891                       # Average percentage of cache occupancy
system.l2cache.tags.occ_percent::total              1                       # Average percentage of cache occupancy
system.l2cache.tags.occ_task_id_blocks::1022         1080                       # Occupied blocks per task id
system.l2cache.tags.occ_task_id_blocks::1024         3016                       # Occupied blocks per task id
system.l2cache.tags.age_task_id_blocks_1022::0           11                       # Occupied blocks per task id
system.l2cache.tags.age_task_id_blocks_1022::1           16                       # Occupied blocks per task id
system.l2cache.tags.age_task_id_blocks_1022::2           59                       # Occupied blocks per task id
system.l2cache.tags.age_task_id_blocks_1022::4          994                       # Occupied blocks per task id
system.l2cache.tags.age_task_id_blocks_1024::0          172                       # Occupied blocks per task id
system.l2cache.tags.age_task_id_blocks_1024::1           74                       # Occupied blocks per task id
system.l2cache.tags.age_task_id_blocks_1024::2          412                       # Occupied blocks per task id
system.l2cache.tags.age_task_id_blocks_1024::4         2358                       # Occupied blocks per task id
system.l2cache.tags.occ_task_id_percent::1022     0.263672                       # Percentage of cache occupancy per task id
system.l2cache.tags.occ_task_id_percent::1024     0.736328                       # Percentage of cache occupancy per task id
system.l2cache.tags.tag_accesses                23048                       # Number of tag accesses
system.l2cache.tags.data_accesses               23048                       # Number of data accesses
system.mem_ctrl.pwrStateResidencyTicks::UNDEFINED    363556800                       # Cumulative time (in ticks) in various power states
system.mem_ctrl.bytes_read::.cpu.inst           26048                       # Number of bytes read from this memory
system.mem_ctrl.bytes_read::.cpu.data           15296                       # Number of bytes read from this memory
system.mem_ctrl.bytes_read::.cpu.dcache.prefetcher         4288                       # Number of bytes read from this memory
system.mem_ctrl.bytes_read::.l2cache.prefetcher          896                       # Number of bytes read from this memory
system.mem_ctrl.bytes_read::total               46528                       # Number of bytes read from this memory
system.mem_ctrl.bytes_inst_read::.cpu.inst        26048                       # Number of instructions bytes read from this memory
system.mem_ctrl.bytes_inst_read::total          26048                       # Number of instructions bytes read from this memory
system.mem_ctrl.bytes_written::.writebacks         3584                       # Number of bytes written to this memory
system.mem_ctrl.bytes_written::total             3584                       # Number of bytes written to this memory
system.mem_ctrl.num_reads::.cpu.inst              407                       # Number of read requests responded to by this memory
system.mem_ctrl.num_reads::.cpu.data              239                       # Number of read requests responded to by this memory
system.mem_ctrl.num_reads::.cpu.dcache.prefetcher           67                       # Number of read requests responded to by this memory
system.mem_ctrl.num_reads::.l2cache.prefetcher           14                       # Number of read requests responded to by this memory
system.mem_ctrl.num_reads::total                  727                       # Number of read requests responded to by this memory
system.mem_ctrl.num_writes::.writebacks            56                       # Number of write requests responded to by this memory
system.mem_ctrl.num_writes::total                  56                       # Number of write requests responded to by this memory
system.mem_ctrl.bw_read::.cpu.inst           71647677                       # Total read bandwidth from this memory (bytes/s)
system.mem_ctrl.bw_read::.cpu.data           42073206                       # Total read bandwidth from this memory (bytes/s)
system.mem_ctrl.bw_read::.cpu.dcache.prefetcher     11794581                       # Total read bandwidth from this memory (bytes/s)
system.mem_ctrl.bw_read::.l2cache.prefetcher      2464539                       # Total read bandwidth from this memory (bytes/s)
system.mem_ctrl.bw_read::total              127980002                       # Total read bandwidth from this memory (bytes/s)
system.mem_ctrl.bw_inst_read::.cpu.inst      71647677                       # Instruction read bandwidth from this memory (bytes/s)
system.mem_ctrl.bw_inst_read::total          71647677                       # Instruction read bandwidth from this memory (bytes/s)
system.mem_ctrl.bw_write::.writebacks         9858157                       # Write bandwidth from this memory (bytes/s)
system.mem_ctrl.bw_write::total               9858157                       # Write bandwidth from this memory (bytes/s)
system.mem_ctrl.bw_total::.writebacks         9858157                       # Total bandwidth to/from this memory (bytes/s)
system.mem_ctrl.bw_total::.cpu.inst          71647677                       # Total bandwidth to/from this memory (bytes/s)
system.mem_ctrl.bw_total::.cpu.data          42073206                       # Total bandwidth to/from this memory (bytes/s)
system.mem_ctrl.bw_total::.cpu.dcache.prefetcher     11794581                       # Total bandwidth to/from this memory (bytes/s)
system.mem_ctrl.bw_total::.l2cache.prefetcher      2464539                       # Total bandwidth to/from this memory (bytes/s)
system.mem_ctrl.bw_total::total             137838159                       # Total bandwidth to/from this memory (bytes/s)

---------- End Simulation Statistics   ----------
