
---------- Begin Simulation Statistics ----------
final_tick                                 1109328800                       # Number of ticks from beginning of simulation (restored from checkpoints and never reset)
host_inst_rate                                 184653                       # Simulator instruction rate (inst/s)
host_mem_usage                                4406828                       # Number of bytes of host memory used
host_op_rate                                   321427                       # Simulator op (including micro ops) rate (op/s)
host_seconds                                    11.28                       # Real time elapsed on the host
host_tick_rate                               98341315                       # Simulator tick rate (ticks/s)
sim_freq                                 1000000000000                       # Frequency of simulated ticks
sim_insts                                     2082941                       # Number of instructions simulated
sim_ops                                       3625823                       # Number of ops (including micro ops) simulated
sim_seconds                                  0.001109                       # Number of seconds simulated
sim_ticks                                  1109328800                       # Number of ticks simulated
system.cpu.branchPred.BTBCorrect                    0                       # Number of correct BTB predictions (this stat may not work properly.
system.cpu.branchPred.BTBHitPct              0.000000                       # BTB Hit Percentage
system.cpu.branchPred.BTBHits                       0                       # Number of BTB hits
system.cpu.branchPred.BTBLookups               442705                       # Number of BTB lookups
system.cpu.branchPred.RASInCorrect                  9                       # Number of incorrect RAS predictions.
system.cpu.branchPred.condIncorrect             25389                       # Number of conditional branches incorrect
system.cpu.branchPred.condPredicted            470494                       # Number of conditional branches predicted
system.cpu.branchPred.indirectHits             240502                       # Number of indirect target hits.
system.cpu.branchPred.indirectLookups          442705                       # Number of indirect predictor lookups.
system.cpu.branchPred.indirectMisses           202203                       # Number of indirect misses.
system.cpu.branchPred.lookups                  497714                       # Number of BP lookups
system.cpu.branchPred.usedRAS                   11627                       # Number of times the RAS was used to get a target.
system.cpu.branchPredindirectMispredicted        13060                       # Number of mispredicted indirect branches.
system.cpu.cc_regfile_reads                   2392598                       # number of cc regfile reads
system.cpu.cc_regfile_writes                  1950003                       # number of cc regfile writes
system.cpu.commit.amos                              0                       # Number of atomic instructions committed
system.cpu.commit.branchMispredicts             25467                       # The number of times a branch was mispredicted
system.cpu.commit.branches                     348901                       # Number of branches committed
system.cpu.commit.bw_lim_events                600208                       # number cycles where commit BW limit reached
system.cpu.commit.commitNonSpecStalls             742                       # The number of times commit has been forced to stall to communicate backwards
system.cpu.commit.commitSquashedInsts          913560                       # The number of squashed insts skipped by commit
system.cpu.commit.committedInsts              2082941                       # Number of instructions committed
system.cpu.commit.committedOps                3625823                       # Number of ops (including micro ops) committed
system.cpu.commit.committed_per_cycle::samples      2361501                       # Number of insts commited each cycle
system.cpu.commit.committed_per_cycle::mean     1.535389                       # Number of insts commited each cycle
system.cpu.commit.committed_per_cycle::stdev     1.721213                       # Number of insts commited each cycle
system.cpu.commit.committed_per_cycle::underflows            0      0.00%      0.00% # Number of insts commited each cycle
system.cpu.commit.committed_per_cycle::0      1172543     49.65%     49.65% # Number of insts commited each cycle
system.cpu.commit.committed_per_cycle::1       183693      7.78%     57.43% # Number of insts commited each cycle
system.cpu.commit.committed_per_cycle::2       173873      7.36%     64.79% # Number of insts commited each cycle
system.cpu.commit.committed_per_cycle::3       231184      9.79%     74.58% # Number of insts commited each cycle
system.cpu.commit.committed_per_cycle::4       600208     25.42%    100.00% # Number of insts commited each cycle
system.cpu.commit.committed_per_cycle::overflows            0      0.00%    100.00% # Number of insts commited each cycle
system.cpu.commit.committed_per_cycle::min_value            0                       # Number of insts commited each cycle
system.cpu.commit.committed_per_cycle::max_value            4                       # Number of insts commited each cycle
system.cpu.commit.committed_per_cycle::total      2361501                       # Number of insts commited each cycle
system.cpu.commit.fp_insts                      76275                       # Number of committed floating point instructions.
system.cpu.commit.function_calls                 9682                       # Number of function calls committed.
system.cpu.commit.int_insts                   3568579                       # Number of committed integer instructions.
system.cpu.commit.loads                        495718                       # Number of loads committed
system.cpu.commit.membars                           1                       # Number of memory barriers committed
system.cpu.commit.op_class_0::No_OpClass        20780      0.57%      0.57% # Class of committed instruction
system.cpu.commit.op_class_0::IntAlu          2851981     78.66%     79.23% # Class of committed instruction
system.cpu.commit.op_class_0::IntMult            1637      0.05%     79.28% # Class of committed instruction
system.cpu.commit.op_class_0::IntDiv            37722      1.04%     80.32% # Class of committed instruction
system.cpu.commit.op_class_0::FloatAdd           2992      0.08%     80.40% # Class of committed instruction
system.cpu.commit.op_class_0::FloatCmp              0      0.00%     80.40% # Class of committed instruction
system.cpu.commit.op_class_0::FloatCvt           1216      0.03%     80.43% # Class of committed instruction
system.cpu.commit.op_class_0::FloatMult             0      0.00%     80.43% # Class of committed instruction
system.cpu.commit.op_class_0::FloatMultAcc            0      0.00%     80.43% # Class of committed instruction
system.cpu.commit.op_class_0::FloatDiv              0      0.00%     80.43% # Class of committed instruction
system.cpu.commit.op_class_0::FloatMisc             0      0.00%     80.43% # Class of committed instruction
system.cpu.commit.op_class_0::FloatSqrt             0      0.00%     80.43% # Class of committed instruction
system.cpu.commit.op_class_0::SimdAdd            6262      0.17%     80.60% # Class of committed instruction
system.cpu.commit.op_class_0::SimdAddAcc            0      0.00%     80.60% # Class of committed instruction
system.cpu.commit.op_class_0::SimdAlu           11675      0.32%     80.93% # Class of committed instruction
system.cpu.commit.op_class_0::SimdCmp               0      0.00%     80.93% # Class of committed instruction
system.cpu.commit.op_class_0::SimdCvt           12600      0.35%     81.27% # Class of committed instruction
system.cpu.commit.op_class_0::SimdMisc           7436      0.21%     81.48% # Class of committed instruction
system.cpu.commit.op_class_0::SimdMult              0      0.00%     81.48% # Class of committed instruction
system.cpu.commit.op_class_0::SimdMultAcc            0      0.00%     81.48% # Class of committed instruction
system.cpu.commit.op_class_0::SimdShift          1229      0.03%     81.51% # Class of committed instruction
system.cpu.commit.op_class_0::SimdShiftAcc            0      0.00%     81.51% # Class of committed instruction
system.cpu.commit.op_class_0::SimdDiv               0      0.00%     81.51% # Class of committed instruction
system.cpu.commit.op_class_0::SimdSqrt              0      0.00%     81.51% # Class of committed instruction
system.cpu.commit.op_class_0::SimdFloatAdd            0      0.00%     81.51% # Class of committed instruction
system.cpu.commit.op_class_0::SimdFloatAlu            0      0.00%     81.51% # Class of committed instruction
system.cpu.commit.op_class_0::SimdFloatCmp            0      0.00%     81.51% # Class of committed instruction
system.cpu.commit.op_class_0::SimdFloatCvt            0      0.00%     81.51% # Class of committed instruction
system.cpu.commit.op_class_0::SimdFloatDiv            0      0.00%     81.51% # Class of committed instruction
system.cpu.commit.op_class_0::SimdFloatMisc            0      0.00%     81.51% # Class of committed instruction
system.cpu.commit.op_class_0::SimdFloatMult            0      0.00%     81.51% # Class of committed instruction
system.cpu.commit.op_class_0::SimdFloatMultAcc            0      0.00%     81.51% # Class of committed instruction
system.cpu.commit.op_class_0::SimdFloatSqrt            0      0.00%     81.51% # Class of committed instruction
system.cpu.commit.op_class_0::SimdReduceAdd            0      0.00%     81.51% # Class of committed instruction
system.cpu.commit.op_class_0::SimdReduceAlu            0      0.00%     81.51% # Class of committed instruction
system.cpu.commit.op_class_0::SimdReduceCmp            0      0.00%     81.51% # Class of committed instruction
system.cpu.commit.op_class_0::SimdFloatReduceAdd            0      0.00%     81.51% # Class of committed instruction
system.cpu.commit.op_class_0::SimdFloatReduceCmp            0      0.00%     81.51% # Class of committed instruction
system.cpu.commit.op_class_0::SimdAes               0      0.00%     81.51% # Class of committed instruction
system.cpu.commit.op_class_0::SimdAesMix            0      0.00%     81.51% # Class of committed instruction
system.cpu.commit.op_class_0::SimdSha1Hash            0      0.00%     81.51% # Class of committed instruction
system.cpu.commit.op_class_0::SimdSha1Hash2            0      0.00%     81.51% # Class of committed instruction
system.cpu.commit.op_class_0::SimdSha256Hash            0      0.00%     81.51% # Class of committed instruction
system.cpu.commit.op_class_0::SimdSha256Hash2            0      0.00%     81.51% # Class of committed instruction
system.cpu.commit.op_class_0::SimdShaSigma2            0      0.00%     81.51% # Class of committed instruction
system.cpu.commit.op_class_0::SimdShaSigma3            0      0.00%     81.51% # Class of committed instruction
system.cpu.commit.op_class_0::SimdPredAlu            0      0.00%     81.51% # Class of committed instruction
system.cpu.commit.op_class_0::MemRead          476174     13.13%     94.65% # Class of committed instruction
system.cpu.commit.op_class_0::MemWrite         162400      4.48%     99.13% # Class of committed instruction
system.cpu.commit.op_class_0::FloatMemRead        19544      0.54%     99.66% # Class of committed instruction
system.cpu.commit.op_class_0::FloatMemWrite        12175      0.34%    100.00% # Class of committed instruction
system.cpu.commit.op_class_0::IprAccess             0      0.00%    100.00% # Class of committed instruction
system.cpu.commit.op_class_0::InstPrefetch            0      0.00%    100.00% # Class of committed instruction
system.cpu.commit.op_class_0::total           3625823                       # Class of committed instruction
system.cpu.commit.refs                         670293                       # Number of memory references committed
system.cpu.commit.swp_count                         0                       # Number of s/w prefetches committed
system.cpu.commit.vec_insts                         0                       # Number of committed Vector instructions.
system.cpu.committedInsts                     2082941                       # Number of Instructions Simulated
system.cpu.committedOps                       3625823                       # Number of Ops (including micro ops) Simulated
system.cpu.cpi                               1.331446                       # CPI: Cycles Per Instruction
system.cpu.cpi_total                         1.331446                       # CPI: Total CPI of All Threads
system.cpu.dcache.prefetcher.num_hwpf_issued         7647                       # number of hwpf issued
system.cpu.dcache.prefetcher.pfBufferHit        33424                       # number of redundant prefetches already in prefetch queue
system.cpu.dcache.prefetcher.pfIdentified        49128                       # number of prefetch candidates identified
system.cpu.dcache.prefetcher.pfInCache              0                       # number of redundant prefetches already in cache/mshr dropped
system.cpu.dcache.prefetcher.pfRemovedFull            0                       # number of prefetches dropped due to prefetch queue size
system.cpu.dcache.prefetcher.pfSpanPage          4380                       # number of prefetches that crossed the page
system.cpu.decode.BlockedCycles               1036948                       # Number of cycles decode is blocked
system.cpu.decode.DecodedInsts                4766266                       # Number of instructions handled by decode
system.cpu.decode.IdleCycles                   300957                       # Number of cycles decode is idle
system.cpu.decode.RunCycles                   1158402                       # Number of cycles decode is running
system.cpu.decode.SquashCycles                  25539                       # Number of cycles decode is squashing
system.cpu.decode.UnblockCycles                 89523                       # Number of cycles decode is unblocking
system.cpu.dtb.rdAccesses                      582131                       # TLB accesses on read requests
system.cpu.dtb.rdMisses                          2002                       # TLB misses on read requests
system.cpu.dtb.wrAccesses                      195448                       # TLB accesses on write requests
system.cpu.dtb.wrMisses                           166                       # TLB misses on write requests
system.cpu.fetch.Branches                      497714                       # Number of branches that fetch encountered
system.cpu.fetch.CacheLines                    247933                       # Number of cache lines fetched
system.cpu.fetch.Cycles                       2246014                       # Number of cycles fetch has run and was not squashing or blocked
system.cpu.fetch.IcacheSquashes                  4799                       # Number of outstanding Icache misses that were squashed
system.cpu.fetch.Insts                        2878319                       # Number of instructions fetch has processed
system.cpu.fetch.MiscStallCycles                  118                       # Number of cycles fetch has spent waiting on interrupts, or bad addresses, or out of MSHRs
system.cpu.fetch.PendingQuiesceStallCycles            6                       # Number of stall cycles due to pending quiesce instructions
system.cpu.fetch.PendingTrapStallCycles           551                       # Number of stall cycles due to pending traps
system.cpu.fetch.SquashCycles                   51078                       # Number of cycles fetch has spent squashing
system.cpu.fetch.branchRate                  0.179465                       # Number of branch fetches per cycle
system.cpu.fetch.icacheStallCycles             339141                       # Number of cycles fetch is stalled on an Icache miss
system.cpu.fetch.predictedBranches             252129                       # Number of branches that fetch has predicted taken
system.cpu.fetch.rate                        1.037859                       # Number of inst fetches per cycle
system.cpu.fetch.rateDist::samples            2611369                       # Number of instructions fetched each cycle (Total)
system.cpu.fetch.rateDist::mean              1.934694                       # Number of instructions fetched each cycle (Total)
system.cpu.fetch.rateDist::stdev             1.930581                       # Number of instructions fetched each cycle (Total)
system.cpu.fetch.rateDist::underflows               0      0.00%      0.00% # Number of instructions fetched each cycle (Total)
system.cpu.fetch.rateDist::0                  1241782     47.55%     47.55% # Number of instructions fetched each cycle (Total)
system.cpu.fetch.rateDist::1                    75993      2.91%     50.46% # Number of instructions fetched each cycle (Total)
system.cpu.fetch.rateDist::2                    60545      2.32%     52.78% # Number of instructions fetched each cycle (Total)
system.cpu.fetch.rateDist::3                    77079      2.95%     55.73% # Number of instructions fetched each cycle (Total)
system.cpu.fetch.rateDist::4                  1155970     44.27%    100.00% # Number of instructions fetched each cycle (Total)
system.cpu.fetch.rateDist::overflows                0      0.00%    100.00% # Number of instructions fetched each cycle (Total)
system.cpu.fetch.rateDist::min_value                0                       # Number of instructions fetched each cycle (Total)
system.cpu.fetch.rateDist::max_value                4                       # Number of instructions fetched each cycle (Total)
system.cpu.fetch.rateDist::total              2611369                       # Number of instructions fetched each cycle (Total)
system.cpu.fp_regfile_reads                    127514                       # number of floating regfile reads
system.cpu.fp_regfile_writes                    70022                       # number of floating regfile writes
system.cpu.fuPool.fu_ticks_busy::IntALU(0)    219618400                       # Total ticks fu was busy
system.cpu.fuPool.fu_ticks_busy::IntALU(1)    219618400                       # Total ticks fu was busy
system.cpu.fuPool.fu_ticks_busy::IntALU(2)    219618400                       # Total ticks fu was busy
system.cpu.fuPool.fu_ticks_busy::IntALU(3)    219618400                       # Total ticks fu was busy
system.cpu.fuPool.fu_ticks_busy::IntALU(4)    219618400                       # Total ticks fu was busy
system.cpu.fuPool.fu_ticks_busy::IntALU(5)    219618000                       # Total ticks fu was busy
system.cpu.fuPool.fu_ticks_busy::IntMultDiv(0)      8658400                       # Total ticks fu was busy
system.cpu.fuPool.fu_ticks_busy::IntMultDiv(1)      8657600                       # Total ticks fu was busy
system.cpu.fuPool.fu_ticks_busy::FP_ALU(0)       594400                       # Total ticks fu was busy
system.cpu.fuPool.fu_ticks_busy::FP_ALU(1)       594000                       # Total ticks fu was busy
system.cpu.fuPool.fu_ticks_busy::FP_ALU(2)       593600                       # Total ticks fu was busy
system.cpu.fuPool.fu_ticks_busy::FP_ALU(3)       593600                       # Total ticks fu was busy
system.cpu.fuPool.fu_ticks_busy::FP_MultDiv(0)            0                       # Total ticks fu was busy
system.cpu.fuPool.fu_ticks_busy::FP_MultDiv(1)            0                       # Total ticks fu was busy
system.cpu.fuPool.fu_ticks_busy::SIMD_Unit(0)      4771200                       # Total ticks fu was busy
system.cpu.fuPool.fu_ticks_busy::SIMD_Unit(1)      4711600                       # Total ticks fu was busy
system.cpu.fuPool.fu_ticks_busy::SIMD_Unit(2)      4819600                       # Total ticks fu was busy
system.cpu.fuPool.fu_ticks_busy::SIMD_Unit(3)      4893200                       # Total ticks fu was busy
system.cpu.fuPool.fu_ticks_busy::PredALU(0)            0                       # Total ticks fu was busy
system.cpu.fuPool.fu_ticks_busy::RdWrPort(0)     79304800                       # Total ticks fu was busy
system.cpu.fuPool.fu_ticks_busy::RdWrPort(1)     79318000                       # Total ticks fu was busy
system.cpu.fuPool.fu_ticks_busy::RdWrPort(2)     79294400                       # Total ticks fu was busy
system.cpu.fuPool.fu_ticks_busy::RdWrPort(3)     79349200                       # Total ticks fu was busy
system.cpu.fuPool.fu_ticks_busy::IprPort(0)            0                       # Total ticks fu was busy
system.cpu.fuPool.fu_ticks_busy::total     1673863600                       # Total ticks fu was busy
system.cpu.icache.prefetcher.num_hwpf_issued            0                       # number of hwpf issued
system.cpu.icache.prefetcher.pfBufferHit            0                       # number of redundant prefetches already in prefetch queue
system.cpu.icache.prefetcher.pfIdentified            0                       # number of prefetch candidates identified
system.cpu.icache.prefetcher.pfInCache              0                       # number of redundant prefetches already in cache/mshr dropped
system.cpu.icache.prefetcher.pfRemovedFull            0                       # number of prefetches dropped due to prefetch queue size
system.cpu.icache.prefetcher.pfSpanPage             0                       # number of prefetches that crossed the page
system.cpu.idleCycles                          161954                       # Total number of cycles that the CPU has spent unscheduled due to idling
system.cpu.iew.branchMispredicts                30122                       # Number of branch mispredicts detected at execute
system.cpu.iew.exec_branches                   380049                       # Number of branches executed
system.cpu.iew.exec_nop                             0                       # number of nop insts executed
system.cpu.iew.exec_rate                     1.505493                       # Inst execution rate
system.cpu.iew.exec_refs                       779114                       # number of memory reference insts executed
system.cpu.iew.exec_stores                     195427                       # Number of stores executed
system.cpu.iew.exec_swp                             0                       # number of swp insts executed
system.cpu.iew.iewBlockCycles                  702426                       # Number of cycles IEW is blocking
system.cpu.iew.iewDispLoadInsts                615875                       # Number of dispatched load instructions
system.cpu.iew.iewDispNonSpecInsts                944                       # Number of dispatched non-speculative instructions
system.cpu.iew.iewDispSquashedInsts               519                       # Number of squashed instructions skipped by dispatch
system.cpu.iew.iewDispStoreInsts               206893                       # Number of dispatched store instructions
system.cpu.iew.iewDispatchedInsts             4539331                       # Number of instructions dispatched to IQ
system.cpu.iew.iewExecLoadInsts                583687                       # Number of load instructions executed
system.cpu.iew.iewExecSquashedInsts             36548                       # Number of squashed instructions skipped in execute
system.cpu.iew.iewExecutedInsts               4175218                       # Number of executed instructions
system.cpu.iew.iewIQFullEvents                   3329                       # Number of times the IQ has become full, causing a stall
system.cpu.iew.iewIdleCycles                        0                       # Number of cycles IEW is idle
system.cpu.iew.iewLSQFullEvents                  8967                       # Number of times the LSQ has become full, causing a stall
system.cpu.iew.iewSquashCycles                  25539                       # Number of cycles IEW is squashing
system.cpu.iew.iewUnblockCycles                 15165                       # Number of cycles IEW is unblocking
system.cpu.iew.lsq.thread0.blockedLoads             0                       # Number of blocked loads due to partial load-store forwarding
system.cpu.iew.lsq.thread0.cacheBlocked           599                       # Number of times an access to memory failed due to the cache being blocked
system.cpu.iew.lsq.thread0.forwLoads            40242                       # Number of loads that had data forwarded from stores
system.cpu.iew.lsq.thread0.ignoredResponses          240                       # Number of memory responses ignored because the instruction is squashed
system.cpu.iew.lsq.thread0.invAddrLoads             0                       # Number of loads ignored due to an invalid address
system.cpu.iew.lsq.thread0.invAddrSwpfs             0                       # Number of software prefetches ignored due to an invalid address
system.cpu.iew.lsq.thread0.memOrderViolation           85                       # Number of memory ordering violations
system.cpu.iew.lsq.thread0.rescheduledLoads            7                       # Number of loads that were rescheduled
system.cpu.iew.lsq.thread0.squashedLoads       120155                       # Number of loads squashed
system.cpu.iew.lsq.thread0.squashedStores        32317                       # Number of stores squashed
system.cpu.iew.memOrderViolationEvents             85                       # Number of memory order violations
system.cpu.iew.predictedNotTakenIncorrect        21831                       # Number of branches that were predicted not taken incorrectly
system.cpu.iew.predictedTakenIncorrect           8291                       # Number of branches that were predicted taken incorrectly
system.cpu.iew.wb_consumers                   5830121                       # num instructions consuming a value
system.cpu.iew.wb_count                       4152060                       # cumulative count of insts written-back
system.cpu.iew.wb_fanout                     0.567860                       # average fanout of values written-back
system.cpu.iew.wb_producers                   3310691                       # num instructions producing a value
system.cpu.iew.wb_rate                       1.497143                       # insts written-back per cycle
system.cpu.iew.wb_sent                        4159384                       # cumulative count of insts sent to commit
system.cpu.int_regfile_reads                  6459315                       # number of integer regfile reads
system.cpu.int_regfile_writes                 3583124                       # number of integer regfile writes
system.cpu.ipc                               0.751063                       # IPC: Instructions Per Cycle
system.cpu.ipc_total                         0.751063                       # IPC: Total IPC of All Threads
system.cpu.iq.FU_type_0::No_OpClass             27107      0.64%      0.64% # Type of FU issued
system.cpu.iq.FU_type_0::IntAlu               3294276     78.22%     78.86% # Type of FU issued
system.cpu.iq.FU_type_0::IntMult                 1663      0.04%     78.90% # Type of FU issued
system.cpu.iq.FU_type_0::IntDiv                 41627      0.99%     79.89% # Type of FU issued
system.cpu.iq.FU_type_0::FloatAdd                4681      0.11%     80.00% # Type of FU issued
system.cpu.iq.FU_type_0::FloatCmp                   0      0.00%     80.00% # Type of FU issued
system.cpu.iq.FU_type_0::FloatCvt                1258      0.03%     80.03% # Type of FU issued
system.cpu.iq.FU_type_0::FloatMult                  0      0.00%     80.03% # Type of FU issued
system.cpu.iq.FU_type_0::FloatMultAcc               0      0.00%     80.03% # Type of FU issued
system.cpu.iq.FU_type_0::FloatDiv                   0      0.00%     80.03% # Type of FU issued
system.cpu.iq.FU_type_0::FloatMisc                  0      0.00%     80.03% # Type of FU issued
system.cpu.iq.FU_type_0::FloatSqrt                  0      0.00%     80.03% # Type of FU issued
system.cpu.iq.FU_type_0::SimdAdd                 6997      0.17%     80.19% # Type of FU issued
system.cpu.iq.FU_type_0::SimdAddAcc                 0      0.00%     80.19% # Type of FU issued
system.cpu.iq.FU_type_0::SimdAlu                15902      0.38%     80.57% # Type of FU issued
system.cpu.iq.FU_type_0::SimdCmp                    0      0.00%     80.57% # Type of FU issued
system.cpu.iq.FU_type_0::SimdCvt                14561      0.35%     80.92% # Type of FU issued
system.cpu.iq.FU_type_0::SimdMisc                8098      0.19%     81.11% # Type of FU issued
system.cpu.iq.FU_type_0::SimdMult                   0      0.00%     81.11% # Type of FU issued
system.cpu.iq.FU_type_0::SimdMultAcc                0      0.00%     81.11% # Type of FU issued
system.cpu.iq.FU_type_0::SimdShift               2431      0.06%     81.17% # Type of FU issued
system.cpu.iq.FU_type_0::SimdShiftAcc               0      0.00%     81.17% # Type of FU issued
system.cpu.iq.FU_type_0::SimdDiv                    0      0.00%     81.17% # Type of FU issued
system.cpu.iq.FU_type_0::SimdSqrt                   0      0.00%     81.17% # Type of FU issued
system.cpu.iq.FU_type_0::SimdFloatAdd               0      0.00%     81.17% # Type of FU issued
system.cpu.iq.FU_type_0::SimdFloatAlu               0      0.00%     81.17% # Type of FU issued
system.cpu.iq.FU_type_0::SimdFloatCmp               0      0.00%     81.17% # Type of FU issued
system.cpu.iq.FU_type_0::SimdFloatCvt               0      0.00%     81.17% # Type of FU issued
system.cpu.iq.FU_type_0::SimdFloatDiv               0      0.00%     81.17% # Type of FU issued
system.cpu.iq.FU_type_0::SimdFloatMisc              0      0.00%     81.17% # Type of FU issued
system.cpu.iq.FU_type_0::SimdFloatMult              0      0.00%     81.17% # Type of FU issued
system.cpu.iq.FU_type_0::SimdFloatMultAcc            0      0.00%     81.17% # Type of FU issued
system.cpu.iq.FU_type_0::SimdFloatSqrt              0      0.00%     81.17% # Type of FU issued
system.cpu.iq.FU_type_0::SimdReduceAdd              0      0.00%     81.17% # Type of FU issued
system.cpu.iq.FU_type_0::SimdReduceAlu              0      0.00%     81.17% # Type of FU issued
system.cpu.iq.FU_type_0::SimdReduceCmp              0      0.00%     81.17% # Type of FU issued
system.cpu.iq.FU_type_0::SimdFloatReduceAdd            0      0.00%     81.17% # Type of FU issued
system.cpu.iq.FU_type_0::SimdFloatReduceCmp            0      0.00%     81.17% # Type of FU issued
system.cpu.iq.FU_type_0::SimdAes                    0      0.00%     81.17% # Type of FU issued
system.cpu.iq.FU_type_0::SimdAesMix                 0      0.00%     81.17% # Type of FU issued
system.cpu.iq.FU_type_0::SimdSha1Hash               0      0.00%     81.17% # Type of FU issued
system.cpu.iq.FU_type_0::SimdSha1Hash2              0      0.00%     81.17% # Type of FU issued
system.cpu.iq.FU_type_0::SimdSha256Hash             0      0.00%     81.17% # Type of FU issued
system.cpu.iq.FU_type_0::SimdSha256Hash2            0      0.00%     81.17% # Type of FU issued
system.cpu.iq.FU_type_0::SimdShaSigma2              0      0.00%     81.17% # Type of FU issued
system.cpu.iq.FU_type_0::SimdShaSigma3              0      0.00%     81.17% # Type of FU issued
system.cpu.iq.FU_type_0::SimdPredAlu                0      0.00%     81.17% # Type of FU issued
system.cpu.iq.FU_type_0::MemRead               568625     13.50%     94.67% # Type of FU issued
system.cpu.iq.FU_type_0::MemWrite              184580      4.38%     99.05% # Type of FU issued
system.cpu.iq.FU_type_0::FloatMemRead           26193      0.62%     99.67% # Type of FU issued
system.cpu.iq.FU_type_0::FloatMemWrite          13770      0.33%    100.00% # Type of FU issued
system.cpu.iq.FU_type_0::IprAccess                  0      0.00%    100.00% # Type of FU issued
system.cpu.iq.FU_type_0::InstPrefetch               0      0.00%    100.00% # Type of FU issued
system.cpu.iq.FU_type_0::total                4211769                       # Type of FU issued
system.cpu.iq.fp_alu_accesses                   95266                       # Number of floating point alu accesses
system.cpu.iq.fp_inst_queue_reads              191992                       # Number of floating instruction queue reads
system.cpu.iq.fp_inst_queue_wakeup_accesses        91465                       # Number of floating instruction queue wakeup accesses
system.cpu.iq.fp_inst_queue_writes             141957                       # Number of floating instruction queue writes
system.cpu.iq.fu_busy_cnt                           0                       # FU busy when requested
system.cpu.iq.fu_busy_rate                          0                       # FU busy rate (busy events/executed inst)
system.cpu.iq.fu_full::No_OpClass                   0                       # attempts to use FU when none available
system.cpu.iq.fu_full::IntAlu                       0                       # attempts to use FU when none available
system.cpu.iq.fu_full::IntMult                      0                       # attempts to use FU when none available
system.cpu.iq.fu_full::IntDiv                       0                       # attempts to use FU when none available
system.cpu.iq.fu_full::FloatAdd                     0                       # attempts to use FU when none available
system.cpu.iq.fu_full::FloatCmp                     0                       # attempts to use FU when none available
system.cpu.iq.fu_full::FloatCvt                     0                       # attempts to use FU when none available
system.cpu.iq.fu_full::FloatMult                    0                       # attempts to use FU when none available
system.cpu.iq.fu_full::FloatMultAcc                 0                       # attempts to use FU when none available
system.cpu.iq.fu_full::FloatDiv                     0                       # attempts to use FU when none available
system.cpu.iq.fu_full::FloatMisc                    0                       # attempts to use FU when none available
system.cpu.iq.fu_full::FloatSqrt                    0                       # attempts to use FU when none available
system.cpu.iq.fu_full::SimdAdd                      0                       # attempts to use FU when none available
system.cpu.iq.fu_full::SimdAddAcc                   0                       # attempts to use FU when none available
system.cpu.iq.fu_full::SimdAlu                      0                       # attempts to use FU when none available
system.cpu.iq.fu_full::SimdCmp                      0                       # attempts to use FU when none available
system.cpu.iq.fu_full::SimdCvt                      0                       # attempts to use FU when none available
system.cpu.iq.fu_full::SimdMisc                     0                       # attempts to use FU when none available
system.cpu.iq.fu_full::SimdMult                     0                       # attempts to use FU when none available
system.cpu.iq.fu_full::SimdMultAcc                  0                       # attempts to use FU when none available
system.cpu.iq.fu_full::SimdShift                    0                       # attempts to use FU when none available
system.cpu.iq.fu_full::SimdShiftAcc                 0                       # attempts to use FU when none available
system.cpu.iq.fu_full::SimdDiv                      0                       # attempts to use FU when none available
system.cpu.iq.fu_full::SimdSqrt                     0                       # attempts to use FU when none available
system.cpu.iq.fu_full::SimdFloatAdd                 0                       # attempts to use FU when none available
system.cpu.iq.fu_full::SimdFloatAlu                 0                       # attempts to use FU when none available
system.cpu.iq.fu_full::SimdFloatCmp                 0                       # attempts to use FU when none available
system.cpu.iq.fu_full::SimdFloatCvt                 0                       # attempts to use FU when none available
system.cpu.iq.fu_full::SimdFloatDiv                 0                       # attempts to use FU when none available
system.cpu.iq.fu_full::SimdFloatMisc                0                       # attempts to use FU when none available
system.cpu.iq.fu_full::SimdFloatMult                0                       # attempts to use FU when none available
system.cpu.iq.fu_full::SimdFloatMultAcc             0                       # attempts to use FU when none available
system.cpu.iq.fu_full::SimdFloatSqrt                0                       # attempts to use FU when none available
system.cpu.iq.fu_full::SimdReduceAdd                0                       # attempts to use FU when none available
system.cpu.iq.fu_full::SimdReduceAlu                0                       # attempts to use FU when none available
system.cpu.iq.fu_full::SimdReduceCmp                0                       # attempts to use FU when none available
system.cpu.iq.fu_full::SimdFloatReduceAdd            0                       # attempts to use FU when none available
system.cpu.iq.fu_full::SimdFloatReduceCmp            0                       # attempts to use FU when none available
system.cpu.iq.fu_full::SimdAes                      0                       # attempts to use FU when none available
system.cpu.iq.fu_full::SimdAesMix                   0                       # attempts to use FU when none available
system.cpu.iq.fu_full::SimdSha1Hash                 0                       # attempts to use FU when none available
system.cpu.iq.fu_full::SimdSha1Hash2                0                       # attempts to use FU when none available
system.cpu.iq.fu_full::SimdSha256Hash               0                       # attempts to use FU when none available
system.cpu.iq.fu_full::SimdSha256Hash2              0                       # attempts to use FU when none available
system.cpu.iq.fu_full::SimdShaSigma2                0                       # attempts to use FU when none available
system.cpu.iq.fu_full::SimdShaSigma3                0                       # attempts to use FU when none available
system.cpu.iq.fu_full::SimdPredAlu                  0                       # attempts to use FU when none available
system.cpu.iq.fu_full::MemRead                      0                       # attempts to use FU when none available
system.cpu.iq.fu_full::MemWrite                     0                       # attempts to use FU when none available
system.cpu.iq.fu_full::FloatMemRead                 0                       # attempts to use FU when none available
system.cpu.iq.fu_full::FloatMemWrite                0                       # attempts to use FU when none available
system.cpu.iq.fu_full::IprAccess                    0                       # attempts to use FU when none available
system.cpu.iq.fu_full::InstPrefetch                 0                       # attempts to use FU when none available
system.cpu.iq.int_alu_accesses                4089396                       # Number of integer alu accesses
system.cpu.iq.int_inst_queue_reads           10862345                       # Number of integer instruction queue reads
system.cpu.iq.int_inst_queue_wakeup_accesses      4060595                       # Number of integer instruction queue wakeup accesses
system.cpu.iq.int_inst_queue_writes           5310954                       # Number of integer instruction queue writes
system.cpu.iq.iqInstsAdded                    4538195                       # Number of instructions added to the IQ (excludes non-spec)
system.cpu.iq.iqInstsIssued                   4211769                       # Number of instructions issued
system.cpu.iq.iqNonSpecInstsAdded                1136                       # Number of non-speculative instructions added to the IQ
system.cpu.iq.iqSquashedInstsExamined          913497                       # Number of squashed instructions iterated over during squash; mainly for profiling
system.cpu.iq.iqSquashedInstsIssued             19433                       # Number of squashed instructions issued
system.cpu.iq.iqSquashedNonSpecRemoved            394                       # Number of squashed non-spec instructions that were removed
system.cpu.iq.iqSquashedOperandsExamined      1354663                       # Number of squashed operands that are examined and possibly removed from graph
system.cpu.iq.issued_per_cycle::samples       2611369                       # Number of insts issued each cycle
system.cpu.iq.issued_per_cycle::mean         1.612859                       # Number of insts issued each cycle
system.cpu.iq.issued_per_cycle::stdev        1.669009                       # Number of insts issued each cycle
system.cpu.iq.issued_per_cycle::underflows            0      0.00%      0.00% # Number of insts issued each cycle
system.cpu.iq.issued_per_cycle::0             1187718     45.48%     45.48% # Number of insts issued each cycle
system.cpu.iq.issued_per_cycle::1              176796      6.77%     52.25% # Number of insts issued each cycle
system.cpu.iq.issued_per_cycle::2              303921     11.64%     63.89% # Number of insts issued each cycle
system.cpu.iq.issued_per_cycle::3              344605     13.20%     77.09% # Number of insts issued each cycle
system.cpu.iq.issued_per_cycle::4              598329     22.91%    100.00% # Number of insts issued each cycle
system.cpu.iq.issued_per_cycle::overflows            0      0.00%    100.00% # Number of insts issued each cycle
system.cpu.iq.issued_per_cycle::min_value            0                       # Number of insts issued each cycle
system.cpu.iq.issued_per_cycle::max_value            4                       # Number of insts issued each cycle
system.cpu.iq.issued_per_cycle::total         2611369                       # Number of insts issued each cycle
system.cpu.iq.rate                           1.518672                       # Inst issue rate
system.cpu.iq.vec_alu_accesses                      0                       # Number of vector alu accesses
system.cpu.iq.vec_inst_queue_reads                  0                       # Number of vector instruction queue reads
system.cpu.iq.vec_inst_queue_wakeup_accesses            0                       # Number of vector instruction queue wakeup accesses
system.cpu.iq.vec_inst_queue_writes                 0                       # Number of vector instruction queue writes
system.cpu.itb.rdAccesses                           0                       # TLB accesses on read requests
system.cpu.itb.rdMisses                             0                       # TLB misses on read requests
system.cpu.itb.wrAccesses                      248026                       # TLB accesses on write requests
system.cpu.itb.wrMisses                           344                       # TLB misses on write requests
system.cpu.memDep0.conflictingLoads             13212                       # Number of conflicting loads.
system.cpu.memDep0.conflictingStores             4497                       # Number of conflicting stores.
system.cpu.memDep0.insertedLoads               615875                       # Number of loads inserted to the mem dependence unit.
system.cpu.memDep0.insertedStores              206893                       # Number of stores inserted to the mem dependence unit.
system.cpu.misc_regfile_reads                 1575603                       # number of misc regfile reads
system.cpu.misc_regfile_writes                    684                       # number of misc regfile writes
system.cpu.numCycles                          2773323                       # number of cpu cycles simulated
system.cpu.numWorkItemsCompleted                    0                       # number of work items this cpu completed
system.cpu.numWorkItemsStarted                      0                       # number of work items this cpu started
system.cpu.process.numSyscalls                     57                       # Number of system calls
system.cpu.rename.BlockCycles                  853290                       # Number of cycles rename is blocking
system.cpu.rename.CommittedMaps               4960547                       # Number of HB maps that are committed
system.cpu.rename.FullRegisterEvents              340                       # Number of times there has been no free registers
system.cpu.rename.IQFullEvents                  46729                       # Number of times rename has blocked due to IQ full
system.cpu.rename.IdleCycles                   352081                       # Number of cycles rename is idle
system.cpu.rename.LQFullEvents                  13793                       # Number of times rename has blocked due to LQ full
system.cpu.rename.ROBFullEvents                  4558                       # Number of times rename has blocked due to ROB full
system.cpu.rename.RenameLookups              12241083                       # Number of register rename lookups that rename has made
system.cpu.rename.RenamedInsts                4687824                       # Number of instructions processed by rename
system.cpu.rename.RenamedOperands             6393931                       # Number of destination operands rename has renamed
system.cpu.rename.RunCycles                   1188195                       # Number of cycles rename is running
system.cpu.rename.SQFullEvents                  74581                       # Number of times rename has blocked due to SQ full
system.cpu.rename.SquashCycles                  25539                       # Number of cycles rename is squashing
system.cpu.rename.UnblockCycles                172412                       # Number of cycles rename is unblocking
system.cpu.rename.UndoneMaps                  1433361                       # Number of HB maps that are undone due to squashing
system.cpu.rename.fp_rename_lookups            166933                       # Number of floating rename lookups
system.cpu.rename.int_rename_lookups          7431142                       # Number of integer rename lookups
system.cpu.rename.serializeStallCycles          19852                       # count of cycles rename stalled for serializing inst
system.cpu.rename.serializingInsts                883                       # count of serializing insts renamed
system.cpu.rename.skidInsts                    206665                       # count of insts added to the skid buffer
system.cpu.rename.tempSerializingInsts            936                       # count of temporary serializing insts renamed
system.cpu.rob.rob_reads                      6300676                       # The number of ROB reads
system.cpu.rob.rob_writes                     9329548                       # The number of ROB writes
system.cpu.timesIdled                            1587                       # Number of times that the entire CPU went into an idle state and unscheduled itself
system.l2bus.snoop_filter.hit_multi_requests           12                       # Number of requests hitting in the snoop filter with multiple (>1) holders of the requested data.
system.l2bus.snoop_filter.hit_multi_snoops            0                       # Number of snoops hitting in the snoop filter with multiple (>1) holders of the requested data.
system.l2bus.snoop_filter.hit_single_requests        18429                       # Number of requests hitting in the snoop filter with a single holder of the requested data.
system.l2bus.snoop_filter.hit_single_snoops          425                       # Number of snoops hitting in the snoop filter with a single holder of the requested data.
system.l2bus.snoop_filter.tot_requests          38134                       # Total number of requests made to the snoop filter.
system.l2bus.snoop_filter.tot_snoops              425                       # Total number of snoops made to the snoop filter.
system.l2cache.prefetcher.num_hwpf_issued          677                       # number of hwpf issued
system.l2cache.prefetcher.pfBufferHit               0                       # number of redundant prefetches already in prefetch queue
system.l2cache.prefetcher.pfIdentified            678                       # number of prefetch candidates identified
system.l2cache.prefetcher.pfInCache                 0                       # number of redundant prefetches already in cache/mshr dropped
system.l2cache.prefetcher.pfRemovedFull             0                       # number of prefetches dropped due to prefetch queue size
system.l2cache.prefetcher.pfSpanPage              106                       # number of prefetches that crossed the page
system.membus.snoop_filter.hit_multi_requests            0                       # Number of requests hitting in the snoop filter with multiple (>1) holders of the requested data.
system.membus.snoop_filter.hit_multi_snoops            0                       # Number of snoops hitting in the snoop filter with multiple (>1) holders of the requested data.
system.membus.snoop_filter.hit_single_requests         9438                       # Number of requests hitting in the snoop filter with a single holder of the requested data.
system.membus.snoop_filter.hit_single_snoops            0                       # Number of snoops hitting in the snoop filter with a single holder of the requested data.
system.membus.snoop_filter.tot_requests         22997                       # Total number of requests made to the snoop filter.
system.membus.snoop_filter.tot_snoops               0                       # Total number of snoops made to the snoop filter.
system.membus.pwrStateResidencyTicks::UNDEFINED   1109328800                       # Cumulative time (in ticks) in various power states
system.membus.trans_dist::ReadResp              12211                       # Transaction distribution
system.membus.trans_dist::WritebackDirty         1338                       # Transaction distribution
system.membus.trans_dist::CleanEvict             8100                       # Transaction distribution
system.membus.trans_dist::ReadExReq              1348                       # Transaction distribution
system.membus.trans_dist::ReadExResp             1348                       # Transaction distribution
system.membus.trans_dist::ReadSharedReq         12211                       # Transaction distribution
system.membus.pkt_count_system.l2cache.mem_side::system.mem_ctrl.port        36556                       # Packet count per connected master and slave (bytes)
system.membus.pkt_count_system.l2cache.mem_side::total        36556                       # Packet count per connected master and slave (bytes)
system.membus.pkt_count::total                  36556                       # Packet count per connected master and slave (bytes)
system.membus.pkt_size_system.l2cache.mem_side::system.mem_ctrl.port       953408                       # Cumulative packet size per connected master and slave (bytes)
system.membus.pkt_size_system.l2cache.mem_side::total       953408                       # Cumulative packet size per connected master and slave (bytes)
system.membus.pkt_size::total                  953408                       # Cumulative packet size per connected master and slave (bytes)
system.membus.snoops                                0                       # Total snoops (count)
system.membus.snoopTraffic                          0                       # Total snoop traffic (bytes)
system.membus.snoop_fanout::samples             13559                       # Request fanout histogram
system.membus.snoop_fanout::mean                    0                       # Request fanout histogram
system.membus.snoop_fanout::stdev                   0                       # Request fanout histogram
system.membus.snoop_fanout::underflows              0      0.00%      0.00% # Request fanout histogram
system.membus.snoop_fanout::0                   13559    100.00%    100.00% # Request fanout histogram
system.membus.snoop_fanout::1                       0      0.00%    100.00% # Request fanout histogram
system.membus.snoop_fanout::overflows               0      0.00%    100.00% # Request fanout histogram
system.membus.snoop_fanout::min_value               0                       # Request fanout histogram
system.membus.snoop_fanout::max_value               0                       # Request fanout histogram
system.membus.snoop_fanout::total               13559                       # Request fanout histogram
system.membus.reqLayer2.occupancy            11363990                       # Layer occupancy (ticks)
system.membus.reqLayer2.utilization               1.0                       # Layer utilization (%)
system.membus.respLayer0.occupancy           29386710                       # Layer occupancy (ticks)
system.membus.respLayer0.utilization              2.6                       # Layer utilization (%)
system.l2bus.pwrStateResidencyTicks::UNDEFINED   1109328800                       # Cumulative time (in ticks) in various power states
system.l2bus.trans_dist::ReadResp               17619                       # Transaction distribution
system.l2bus.trans_dist::WritebackDirty          4106                       # Transaction distribution
system.l2bus.trans_dist::CleanEvict             23840                       # Transaction distribution
system.l2bus.trans_dist::HardPFReq                978                       # Transaction distribution
system.l2bus.trans_dist::ReadExReq               2088                       # Transaction distribution
system.l2bus.trans_dist::ReadExResp              2088                       # Transaction distribution
system.l2bus.trans_dist::ReadSharedReq          17619                       # Transaction distribution
system.l2bus.pkt_count_system.cpu.icache.mem_side::system.l2cache.cpu_side         8367                       # Packet count per connected master and slave (bytes)
system.l2bus.pkt_count_system.cpu.dcache.mem_side::system.l2cache.cpu_side        49470                       # Packet count per connected master and slave (bytes)
system.l2bus.pkt_count::total                   57837                       # Packet count per connected master and slave (bytes)
system.l2bus.pkt_size_system.cpu.icache.mem_side::system.l2cache.cpu_side       184000                       # Cumulative packet size per connected master and slave (bytes)
system.l2bus.pkt_size_system.cpu.dcache.mem_side::system.l2cache.cpu_side      1254144                       # Cumulative packet size per connected master and slave (bytes)
system.l2bus.pkt_size::total                  1438144                       # Cumulative packet size per connected master and slave (bytes)
system.l2bus.snoops                             10501                       # Total snoops (count)
system.l2bus.snoopTraffic                       85888                       # Total snoop traffic (bytes)
system.l2bus.snoop_fanout::samples              30204                       # Request fanout histogram
system.l2bus.snoop_fanout::mean              0.014534                       # Request fanout histogram
system.l2bus.snoop_fanout::stdev             0.119682                       # Request fanout histogram
system.l2bus.snoop_fanout::underflows               0      0.00%      0.00% # Request fanout histogram
system.l2bus.snoop_fanout::0                    29765     98.55%     98.55% # Request fanout histogram
system.l2bus.snoop_fanout::1                      439      1.45%    100.00% # Request fanout histogram
system.l2bus.snoop_fanout::2                        0      0.00%    100.00% # Request fanout histogram
system.l2bus.snoop_fanout::overflows                0      0.00%    100.00% # Request fanout histogram
system.l2bus.snoop_fanout::min_value                0                       # Request fanout histogram
system.l2bus.snoop_fanout::max_value                1                       # Request fanout histogram
system.l2bus.snoop_fanout::total                30204                       # Request fanout histogram
system.l2bus.respLayer1.occupancy            20199198                       # Layer occupancy (ticks)
system.l2bus.respLayer1.utilization               1.8                       # Layer utilization (%)
system.l2bus.reqLayer0.occupancy             18837321                       # Layer occupancy (ticks)
system.l2bus.reqLayer0.utilization                1.7                       # Layer utilization (%)
system.l2bus.respLayer0.occupancy             3450798                       # Layer occupancy (ticks)
system.l2bus.respLayer0.utilization               0.3                       # Layer utilization (%)
system.clk_domain.clock                           400                       # Clock period in ticks
system.clk_domain.voltage_domain.voltage            1                       # Voltage in Volts
system.cpu.pwrStateResidencyTicks::ON      1109328800                       # Cumulative time (in ticks) in various power states
system.cpu.icache.pwrStateResidencyTicks::UNDEFINED   1109328800                       # Cumulative time (in ticks) in various power states
system.cpu.icache.demand_hits::.cpu.inst       244334                       # number of demand (read+write) hits
system.cpu.icache.demand_hits::total           244334                       # number of demand (read+write) hits
system.cpu.icache.overall_hits::.cpu.inst       244334                       # number of overall hits
system.cpu.icache.overall_hits::total          244334                       # number of overall hits
system.cpu.icache.demand_misses::.cpu.inst         3598                       # number of demand (read+write) misses
system.cpu.icache.demand_misses::total           3598                       # number of demand (read+write) misses
system.cpu.icache.overall_misses::.cpu.inst         3598                       # number of overall misses
system.cpu.icache.overall_misses::total          3598                       # number of overall misses
system.cpu.icache.demand_miss_latency::.cpu.inst    178500800                       # number of demand (read+write) miss cycles
system.cpu.icache.demand_miss_latency::total    178500800                       # number of demand (read+write) miss cycles
system.cpu.icache.overall_miss_latency::.cpu.inst    178500800                       # number of overall miss cycles
system.cpu.icache.overall_miss_latency::total    178500800                       # number of overall miss cycles
system.cpu.icache.demand_accesses::.cpu.inst       247932                       # number of demand (read+write) accesses
system.cpu.icache.demand_accesses::total       247932                       # number of demand (read+write) accesses
system.cpu.icache.overall_accesses::.cpu.inst       247932                       # number of overall (read+write) accesses
system.cpu.icache.overall_accesses::total       247932                       # number of overall (read+write) accesses
system.cpu.icache.demand_miss_rate::.cpu.inst     0.014512                       # miss rate for demand accesses
system.cpu.icache.demand_miss_rate::total     0.014512                       # miss rate for demand accesses
system.cpu.icache.overall_miss_rate::.cpu.inst     0.014512                       # miss rate for overall accesses
system.cpu.icache.overall_miss_rate::total     0.014512                       # miss rate for overall accesses
system.cpu.icache.demand_avg_miss_latency::.cpu.inst 49611.117287                       # average overall miss latency
system.cpu.icache.demand_avg_miss_latency::total 49611.117287                       # average overall miss latency
system.cpu.icache.overall_avg_miss_latency::.cpu.inst 49611.117287                       # average overall miss latency
system.cpu.icache.overall_avg_miss_latency::total 49611.117287                       # average overall miss latency
system.cpu.icache.blocked_cycles::no_mshrs          184                       # number of cycles access was blocked
system.cpu.icache.blocked_cycles::no_targets            0                       # number of cycles access was blocked
system.cpu.icache.blocked::no_mshrs                 4                       # number of cycles access was blocked
system.cpu.icache.blocked::no_targets               0                       # number of cycles access was blocked
system.cpu.icache.avg_blocked_cycles::no_mshrs           46                       # average number of cycles each access was blocked
system.cpu.icache.avg_blocked_cycles::no_targets          nan                       # average number of cycles each access was blocked
system.cpu.icache.writebacks::.writebacks            2                       # number of writebacks
system.cpu.icache.writebacks::total                 2                       # number of writebacks
system.cpu.icache.demand_mshr_hits::.cpu.inst          723                       # number of demand (read+write) MSHR hits
system.cpu.icache.demand_mshr_hits::total          723                       # number of demand (read+write) MSHR hits
system.cpu.icache.overall_mshr_hits::.cpu.inst          723                       # number of overall MSHR hits
system.cpu.icache.overall_mshr_hits::total          723                       # number of overall MSHR hits
system.cpu.icache.demand_mshr_misses::.cpu.inst         2875                       # number of demand (read+write) MSHR misses
system.cpu.icache.demand_mshr_misses::total         2875                       # number of demand (read+write) MSHR misses
system.cpu.icache.overall_mshr_misses::.cpu.inst         2875                       # number of overall MSHR misses
system.cpu.icache.overall_mshr_misses::total         2875                       # number of overall MSHR misses
system.cpu.icache.demand_mshr_miss_latency::.cpu.inst    143098800                       # number of demand (read+write) MSHR miss cycles
system.cpu.icache.demand_mshr_miss_latency::total    143098800                       # number of demand (read+write) MSHR miss cycles
system.cpu.icache.overall_mshr_miss_latency::.cpu.inst    143098800                       # number of overall MSHR miss cycles
system.cpu.icache.overall_mshr_miss_latency::total    143098800                       # number of overall MSHR miss cycles
system.cpu.icache.demand_mshr_miss_rate::.cpu.inst     0.011596                       # mshr miss rate for demand accesses
system.cpu.icache.demand_mshr_miss_rate::total     0.011596                       # mshr miss rate for demand accesses
system.cpu.icache.overall_mshr_miss_rate::.cpu.inst     0.011596                       # mshr miss rate for overall accesses
system.cpu.icache.overall_mshr_miss_rate::total     0.011596                       # mshr miss rate for overall accesses
system.cpu.icache.demand_avg_mshr_miss_latency::.cpu.inst 49773.495652                       # average overall mshr miss latency
system.cpu.icache.demand_avg_mshr_miss_latency::total 49773.495652                       # average overall mshr miss latency
system.cpu.icache.overall_avg_mshr_miss_latency::.cpu.inst 49773.495652                       # average overall mshr miss latency
system.cpu.icache.overall_avg_mshr_miss_latency::total 49773.495652                       # average overall mshr miss latency
system.cpu.icache.replacements                   2619                       # number of replacements
system.cpu.icache.ReadReq_hits::.cpu.inst       244334                       # number of ReadReq hits
system.cpu.icache.ReadReq_hits::total          244334                       # number of ReadReq hits
system.cpu.icache.ReadReq_misses::.cpu.inst         3598                       # number of ReadReq misses
system.cpu.icache.ReadReq_misses::total          3598                       # number of ReadReq misses
system.cpu.icache.ReadReq_miss_latency::.cpu.inst    178500800                       # number of ReadReq miss cycles
system.cpu.icache.ReadReq_miss_latency::total    178500800                       # number of ReadReq miss cycles
system.cpu.icache.ReadReq_accesses::.cpu.inst       247932                       # number of ReadReq accesses(hits+misses)
system.cpu.icache.ReadReq_accesses::total       247932                       # number of ReadReq accesses(hits+misses)
system.cpu.icache.ReadReq_miss_rate::.cpu.inst     0.014512                       # miss rate for ReadReq accesses
system.cpu.icache.ReadReq_miss_rate::total     0.014512                       # miss rate for ReadReq accesses
system.cpu.icache.ReadReq_avg_miss_latency::.cpu.inst 49611.117287                       # average ReadReq miss latency
system.cpu.icache.ReadReq_avg_miss_latency::total 49611.117287                       # average ReadReq miss latency
system.cpu.icache.ReadReq_mshr_hits::.cpu.inst          723                       # number of ReadReq MSHR hits
system.cpu.icache.ReadReq_mshr_hits::total          723                       # number of ReadReq MSHR hits
system.cpu.icache.ReadReq_mshr_misses::.cpu.inst         2875                       # number of ReadReq MSHR misses
system.cpu.icache.ReadReq_mshr_misses::total         2875                       # number of ReadReq MSHR misses
system.cpu.icache.ReadReq_mshr_miss_latency::.cpu.inst    143098800                       # number of ReadReq MSHR miss cycles
system.cpu.icache.ReadReq_mshr_miss_latency::total    143098800                       # number of ReadReq MSHR miss cycles
system.cpu.icache.ReadReq_mshr_miss_rate::.cpu.inst     0.011596                       # mshr miss rate for ReadReq accesses
system.cpu.icache.ReadReq_mshr_miss_rate::total     0.011596                       # mshr miss rate for ReadReq accesses
system.cpu.icache.ReadReq_avg_mshr_miss_latency::.cpu.inst 49773.495652                       # average ReadReq mshr miss latency
system.cpu.icache.ReadReq_avg_mshr_miss_latency::total 49773.495652                       # average ReadReq mshr miss latency
system.cpu.icache.prefetcher.pwrStateResidencyTicks::UNDEFINED   1109328800                       # Cumulative time (in ticks) in various power states
system.cpu.icache.tags.pwrStateResidencyTicks::UNDEFINED   1109328800                       # Cumulative time (in ticks) in various power states
system.cpu.icache.tags.tagsinuse           253.495545                       # Cycle average of tags in use
system.cpu.icache.tags.total_refs              232398                       # Total number of references to valid blocks.
system.cpu.icache.tags.sampled_refs              2619                       # Sample count of references to valid blocks.
system.cpu.icache.tags.avg_refs             88.735395                       # Average number of references to valid blocks.
system.cpu.icache.tags.warmup_cycle             66400                       # Cycle when the warmup percentage was hit.
system.cpu.icache.tags.occ_blocks::.cpu.inst   253.495545                       # Average occupied blocks per requestor
system.cpu.icache.tags.occ_percent::.cpu.inst     0.990217                       # Average percentage of cache occupancy
system.cpu.icache.tags.occ_percent::total     0.990217                       # Average percentage of cache occupancy
system.cpu.icache.tags.occ_task_id_blocks::1024          256                       # Occupied blocks per task id
system.cpu.icache.tags.age_task_id_blocks_1024::0          103                       # Occupied blocks per task id
system.cpu.icache.tags.age_task_id_blocks_1024::1          131                       # Occupied blocks per task id
system.cpu.icache.tags.age_task_id_blocks_1024::2           20                       # Occupied blocks per task id
system.cpu.icache.tags.age_task_id_blocks_1024::3            2                       # Occupied blocks per task id
system.cpu.icache.tags.occ_task_id_percent::1024            1                       # Percentage of cache occupancy per task id
system.cpu.icache.tags.tag_accesses            498739                       # Number of tag accesses
system.cpu.icache.tags.data_accesses           498739                       # Number of data accesses
system.cpu.dtb.walker.pwrStateResidencyTicks::UNDEFINED   1109328800                       # Cumulative time (in ticks) in various power states
system.cpu.interrupts.clk_domain.clock           6400                       # Clock period in ticks
system.cpu.itb.walker.pwrStateResidencyTicks::UNDEFINED   1109328800                       # Cumulative time (in ticks) in various power states
system.cpu.dcache.pwrStateResidencyTicks::UNDEFINED   1109328800                       # Cumulative time (in ticks) in various power states
system.cpu.dcache.demand_hits::.cpu.data       679960                       # number of demand (read+write) hits
system.cpu.dcache.demand_hits::total           679960                       # number of demand (read+write) hits
system.cpu.dcache.overall_hits::.cpu.data       679960                       # number of overall hits
system.cpu.dcache.overall_hits::total          679960                       # number of overall hits
system.cpu.dcache.demand_misses::.cpu.data        35431                       # number of demand (read+write) misses
system.cpu.dcache.demand_misses::total          35431                       # number of demand (read+write) misses
system.cpu.dcache.overall_misses::.cpu.data        35431                       # number of overall misses
system.cpu.dcache.overall_misses::total         35431                       # number of overall misses
system.cpu.dcache.demand_miss_latency::.cpu.data   1738307600                       # number of demand (read+write) miss cycles
system.cpu.dcache.demand_miss_latency::total   1738307600                       # number of demand (read+write) miss cycles
system.cpu.dcache.overall_miss_latency::.cpu.data   1738307600                       # number of overall miss cycles
system.cpu.dcache.overall_miss_latency::total   1738307600                       # number of overall miss cycles
system.cpu.dcache.demand_accesses::.cpu.data       715391                       # number of demand (read+write) accesses
system.cpu.dcache.demand_accesses::total       715391                       # number of demand (read+write) accesses
system.cpu.dcache.overall_accesses::.cpu.data       715391                       # number of overall (read+write) accesses
system.cpu.dcache.overall_accesses::total       715391                       # number of overall (read+write) accesses
system.cpu.dcache.demand_miss_rate::.cpu.data     0.049527                       # miss rate for demand accesses
system.cpu.dcache.demand_miss_rate::total     0.049527                       # miss rate for demand accesses
system.cpu.dcache.overall_miss_rate::.cpu.data     0.049527                       # miss rate for overall accesses
system.cpu.dcache.overall_miss_rate::total     0.049527                       # miss rate for overall accesses
system.cpu.dcache.demand_avg_miss_latency::.cpu.data 49061.770766                       # average overall miss latency
system.cpu.dcache.demand_avg_miss_latency::total 49061.770766                       # average overall miss latency
system.cpu.dcache.overall_avg_miss_latency::.cpu.data 49061.770766                       # average overall miss latency
system.cpu.dcache.overall_avg_miss_latency::total 49061.770766                       # average overall miss latency
system.cpu.dcache.blocked_cycles::no_mshrs        27478                       # number of cycles access was blocked
system.cpu.dcache.blocked_cycles::no_targets          333                       # number of cycles access was blocked
system.cpu.dcache.blocked::no_mshrs               741                       # number of cycles access was blocked
system.cpu.dcache.blocked::no_targets               2                       # number of cycles access was blocked
system.cpu.dcache.avg_blocked_cycles::no_mshrs    37.082321                       # average number of cycles each access was blocked
system.cpu.dcache.avg_blocked_cycles::no_targets   166.500000                       # average number of cycles each access was blocked
system.cpu.dcache.unused_prefetches              1752                       # number of HardPF blocks evicted w/o reference
system.cpu.dcache.writebacks::.writebacks         2766                       # number of writebacks
system.cpu.dcache.writebacks::total              2766                       # number of writebacks
system.cpu.dcache.demand_mshr_hits::.cpu.data        22759                       # number of demand (read+write) MSHR hits
system.cpu.dcache.demand_mshr_hits::total        22759                       # number of demand (read+write) MSHR hits
system.cpu.dcache.overall_mshr_hits::.cpu.data        22759                       # number of overall MSHR hits
system.cpu.dcache.overall_mshr_hits::total        22759                       # number of overall MSHR hits
system.cpu.dcache.demand_mshr_misses::.cpu.data        12672                       # number of demand (read+write) MSHR misses
system.cpu.dcache.demand_mshr_misses::total        12672                       # number of demand (read+write) MSHR misses
system.cpu.dcache.overall_mshr_misses::.cpu.data        12672                       # number of overall MSHR misses
system.cpu.dcache.overall_mshr_misses::.cpu.dcache.prefetcher         4160                       # number of overall MSHR misses
system.cpu.dcache.overall_mshr_misses::total        16832                       # number of overall MSHR misses
system.cpu.dcache.demand_mshr_miss_latency::.cpu.data    585205600                       # number of demand (read+write) MSHR miss cycles
system.cpu.dcache.demand_mshr_miss_latency::total    585205600                       # number of demand (read+write) MSHR miss cycles
system.cpu.dcache.overall_mshr_miss_latency::.cpu.data    585205600                       # number of overall MSHR miss cycles
system.cpu.dcache.overall_mshr_miss_latency::.cpu.dcache.prefetcher    240638418                       # number of overall MSHR miss cycles
system.cpu.dcache.overall_mshr_miss_latency::total    825844018                       # number of overall MSHR miss cycles
system.cpu.dcache.demand_mshr_miss_rate::.cpu.data     0.017713                       # mshr miss rate for demand accesses
system.cpu.dcache.demand_mshr_miss_rate::total     0.017713                       # mshr miss rate for demand accesses
system.cpu.dcache.overall_mshr_miss_rate::.cpu.data     0.017713                       # mshr miss rate for overall accesses
system.cpu.dcache.overall_mshr_miss_rate::.cpu.dcache.prefetcher          inf                       # mshr miss rate for overall accesses
system.cpu.dcache.overall_mshr_miss_rate::total     0.023528                       # mshr miss rate for overall accesses
system.cpu.dcache.demand_avg_mshr_miss_latency::.cpu.data 46180.997475                       # average overall mshr miss latency
system.cpu.dcache.demand_avg_mshr_miss_latency::total 46180.997475                       # average overall mshr miss latency
system.cpu.dcache.overall_avg_mshr_miss_latency::.cpu.data 46180.997475                       # average overall mshr miss latency
system.cpu.dcache.overall_avg_mshr_miss_latency::.cpu.dcache.prefetcher 57845.773558                       # average overall mshr miss latency
system.cpu.dcache.overall_avg_mshr_miss_latency::total 49063.926925                       # average overall mshr miss latency
system.cpu.dcache.replacements                  15808                       # number of replacements
system.cpu.dcache.ReadReq_hits::.cpu.data       507492                       # number of ReadReq hits
system.cpu.dcache.ReadReq_hits::total          507492                       # number of ReadReq hits
system.cpu.dcache.ReadReq_misses::.cpu.data        33304                       # number of ReadReq misses
system.cpu.dcache.ReadReq_misses::total         33304                       # number of ReadReq misses
system.cpu.dcache.ReadReq_miss_latency::.cpu.data   1633392000                       # number of ReadReq miss cycles
system.cpu.dcache.ReadReq_miss_latency::total   1633392000                       # number of ReadReq miss cycles
system.cpu.dcache.ReadReq_accesses::.cpu.data       540796                       # number of ReadReq accesses(hits+misses)
system.cpu.dcache.ReadReq_accesses::total       540796                       # number of ReadReq accesses(hits+misses)
system.cpu.dcache.ReadReq_miss_rate::.cpu.data     0.061583                       # miss rate for ReadReq accesses
system.cpu.dcache.ReadReq_miss_rate::total     0.061583                       # miss rate for ReadReq accesses
system.cpu.dcache.ReadReq_avg_miss_latency::.cpu.data 49044.919529                       # average ReadReq miss latency
system.cpu.dcache.ReadReq_avg_miss_latency::total 49044.919529                       # average ReadReq miss latency
system.cpu.dcache.ReadReq_mshr_hits::.cpu.data        22720                       # number of ReadReq MSHR hits
system.cpu.dcache.ReadReq_mshr_hits::total        22720                       # number of ReadReq MSHR hits
system.cpu.dcache.ReadReq_mshr_misses::.cpu.data        10584                       # number of ReadReq MSHR misses
system.cpu.dcache.ReadReq_mshr_misses::total        10584                       # number of ReadReq MSHR misses
system.cpu.dcache.ReadReq_mshr_miss_latency::.cpu.data    483181600                       # number of ReadReq MSHR miss cycles
system.cpu.dcache.ReadReq_mshr_miss_latency::total    483181600                       # number of ReadReq MSHR miss cycles
system.cpu.dcache.ReadReq_mshr_miss_rate::.cpu.data     0.019571                       # mshr miss rate for ReadReq accesses
system.cpu.dcache.ReadReq_mshr_miss_rate::total     0.019571                       # mshr miss rate for ReadReq accesses
system.cpu.dcache.ReadReq_avg_mshr_miss_latency::.cpu.data 45652.078609                       # average ReadReq mshr miss latency
system.cpu.dcache.ReadReq_avg_mshr_miss_latency::total 45652.078609                       # average ReadReq mshr miss latency
system.cpu.dcache.WriteReq_hits::.cpu.data       172468                       # number of WriteReq hits
system.cpu.dcache.WriteReq_hits::total         172468                       # number of WriteReq hits
system.cpu.dcache.WriteReq_misses::.cpu.data         2127                       # number of WriteReq misses
system.cpu.dcache.WriteReq_misses::total         2127                       # number of WriteReq misses
system.cpu.dcache.WriteReq_miss_latency::.cpu.data    104915600                       # number of WriteReq miss cycles
system.cpu.dcache.WriteReq_miss_latency::total    104915600                       # number of WriteReq miss cycles
system.cpu.dcache.WriteReq_accesses::.cpu.data       174595                       # number of WriteReq accesses(hits+misses)
system.cpu.dcache.WriteReq_accesses::total       174595                       # number of WriteReq accesses(hits+misses)
system.cpu.dcache.WriteReq_miss_rate::.cpu.data     0.012182                       # miss rate for WriteReq accesses
system.cpu.dcache.WriteReq_miss_rate::total     0.012182                       # miss rate for WriteReq accesses
system.cpu.dcache.WriteReq_avg_miss_latency::.cpu.data 49325.622943                       # average WriteReq miss latency
system.cpu.dcache.WriteReq_avg_miss_latency::total 49325.622943                       # average WriteReq miss latency
system.cpu.dcache.WriteReq_mshr_hits::.cpu.data           39                       # number of WriteReq MSHR hits
system.cpu.dcache.WriteReq_mshr_hits::total           39                       # number of WriteReq MSHR hits
system.cpu.dcache.WriteReq_mshr_misses::.cpu.data         2088                       # number of WriteReq MSHR misses
[...]
system.l2cache.demand_mshr_misses::.cpu.data          150                       # number of demand (read+write) MSHR misses
system.l2cache.demand_mshr_misses::.cpu.dcache.prefetcher           38                       # number of demand (read+write) MSHR misses
system.l2cache.demand_mshr_misses::total          445                       # number of demand (read+write) MSHR misses
system.l2cache.overall_mshr_misses::.cpu.inst          257                       # number of overall MSHR misses
system.l2cache.overall_mshr_misses::.cpu.data          150                       # number of overall MSHR misses
system.l2cache.overall_mshr_misses::.cpu.dcache.prefetcher           38                       # number of overall MSHR misses
system.l2cache.overall_mshr_misses::total          445                       # number of overall MSHR misses
system.l2cache.demand_mshr_miss_latency::.cpu.inst     15270800                       # number of demand (read+write) MSHR miss cycles
system.l2cache.demand_mshr_miss_latency::.cpu.data      9043600                       # number of demand (read+write) MSHR miss cycles
system.l2cache.demand_mshr_miss_latency::.cpu.dcache.prefetcher      2299559                       # number of demand (read+write) MSHR miss cycles
system.l2cache.demand_mshr_miss_latency::total     26613959                       # number of demand (read+write) MSHR miss cycles
system.l2cache.overall_mshr_miss_latency::.cpu.inst     15270800                       # number of overall MSHR miss cycles
system.l2cache.overall_mshr_miss_latency::.cpu.data      9043600                       # number of overall MSHR miss cycles
system.l2cache.overall_mshr_miss_latency::.cpu.dcache.prefetcher      2299559                       # number of overall MSHR miss cycles
system.l2cache.overall_mshr_miss_latency::total     26613959                       # number of overall MSHR miss cycles
system.l2cache.demand_mshr_miss_rate::.cpu.inst     0.481273                       # mshr miss rate for demand accesses
system.l2cache.demand_mshr_miss_rate::.cpu.data     0.553506                       # mshr miss rate for demand accesses
system.l2cache.demand_mshr_miss_rate::.cpu.dcache.prefetcher     0.844444                       # mshr miss rate for demand accesses
system.l2cache.demand_mshr_miss_rate::total     0.523529                       # mshr miss rate for demand accesses
system.l2cache.overall_mshr_miss_rate::.cpu.inst     0.481273                       # mshr miss rate for overall accesses
system.l2cache.overall_mshr_miss_rate::.cpu.data     0.553506                       # mshr miss rate for overall accesses
system.l2cache.overall_mshr_miss_rate::.cpu.dcache.prefetcher     0.844444                       # mshr miss rate for overall accesses
system.l2cache.overall_mshr_miss_rate::total     0.523529                       # mshr miss rate for overall accesses
system.l2cache.demand_avg_mshr_miss_latency::.cpu.inst 59419.455253                       # average overall mshr miss latency
system.l2cache.demand_avg_mshr_miss_latency::.cpu.data 60290.666667                       # average overall mshr miss latency
system.l2cache.demand_avg_mshr_miss_latency::.cpu.dcache.prefetcher 60514.710526                       # average overall mshr miss latency
system.l2cache.demand_avg_mshr_miss_latency::total 59806.649438                       # average overall mshr miss latency
system.l2cache.overall_avg_mshr_miss_latency::.cpu.inst 59419.455253                       # average overall mshr miss latency
system.l2cache.overall_avg_mshr_miss_latency::.cpu.data 60290.666667                       # average overall mshr miss latency
system.l2cache.overall_avg_mshr_miss_latency::.cpu.dcache.prefetcher 60514.710526                       # average overall mshr miss latency
system.l2cache.overall_avg_mshr_miss_latency::total 59806.649438                       # average overall mshr miss latency
system.l2cache.replacements                       454                       # number of replacements
system.l2cache.WritebackDirty_hits::.writebacks           91                       # number of WritebackDirty hits
system.l2cache.WritebackDirty_hits::total           91                       # number of WritebackDirty hits
system.l2cache.WritebackDirty_accesses::.writebacks           91                       # number of WritebackDirty accesses(hits+misses)
system.l2cache.WritebackDirty_accesses::total           91                       # number of WritebackDirty accesses(hits+misses)
system.l2cache.CleanEvict_mshr_misses::.writebacks           11                       # number of CleanEvict MSHR misses
system.l2cache.CleanEvict_mshr_misses::total           11                       # number of CleanEvict MSHR misses
system.l2cache.CleanEvict_mshr_miss_rate::.writebacks          inf                       # mshr miss rate for CleanEvict accesses
system.l2cache.CleanEvict_mshr_miss_rate::total          inf                       # mshr miss rate for CleanEvict accesses
system.l2cache.ReadExReq_hits::.cpu.data            6                       # number of ReadExReq hits
system.l2cache.ReadExReq_hits::total                6                       # number of ReadExReq hits
system.l2cache.ReadExReq_misses::.cpu.data           33                       # number of ReadExReq misses
system.l2cache.ReadExReq_misses::total             33                       # number of ReadExReq misses
system.l2cache.ReadExReq_miss_latency::.cpu.data      2293600                       # number of ReadExReq miss cycles
system.l2cache.ReadExReq_miss_latency::total      2293600                       # number of ReadExReq miss cycles
system.l2cache.ReadExReq_accesses::.cpu.data           39                       # number of ReadExReq accesses(hits+misses)
system.l2cache.ReadExReq_accesses::total           39                       # number of ReadExReq accesses(hits+misses)
system.l2cache.ReadExReq_miss_rate::.cpu.data     0.846154                       # miss rate for ReadExReq accesses
system.l2cache.ReadExReq_miss_rate::total     0.846154                       # miss rate for ReadExReq accesses
system.l2cache.ReadExReq_avg_miss_latency::.cpu.data 69503.030303                       # average ReadExReq miss latency
system.l2cache.ReadExReq_avg_miss_latency::total 69503.030303                       # average ReadExReq miss latency
system.l2cache.ReadExReq_mshr_misses::.cpu.data           33                       # number of ReadExReq MSHR misses
system.l2cache.ReadExReq_mshr_misses::total           33                       # number of ReadExReq MSHR misses
system.l2cache.ReadExReq_mshr_miss_latency::.cpu.data      2029600                       # number of ReadExReq MSHR miss cycles
system.l2cache.ReadExReq_mshr_miss_latency::total      2029600                       # number of ReadExReq MSHR miss cycles
system.l2cache.ReadExReq_mshr_miss_rate::.cpu.data     0.846154                       # mshr miss rate for ReadExReq accesses
system.l2cache.ReadExReq_mshr_miss_rate::total     0.846154                       # mshr miss rate for ReadExReq accesses
system.l2cache.ReadExReq_avg_mshr_miss_latency::.cpu.data 61503.030303                       # average ReadExReq mshr miss latency
system.l2cache.ReadExReq_avg_mshr_miss_latency::total 61503.030303                       # average ReadExReq mshr miss latency
system.l2cache.ReadSharedReq_hits::.cpu.inst          277                       # number of ReadSharedReq hits
system.l2cache.ReadSharedReq_hits::.cpu.data          115                       # number of ReadSharedReq hits
system.l2cache.ReadSharedReq_hits::.cpu.dcache.prefetcher            7                       # number of ReadSharedReq hits
system.l2cache.ReadSharedReq_hits::total          399                       # number of ReadSharedReq hits
system.l2cache.ReadSharedReq_misses::.cpu.inst          257                       # number of ReadSharedReq misses
system.l2cache.ReadSharedReq_misses::.cpu.data          117                       # number of ReadSharedReq misses
system.l2cache.ReadSharedReq_misses::.cpu.dcache.prefetcher           38                       # number of ReadSharedReq misses
system.l2cache.ReadSharedReq_misses::total          412                       # number of ReadSharedReq misses
system.l2cache.ReadSharedReq_miss_latency::.cpu.inst     17318800                       # number of ReadSharedReq miss cycles
system.l2cache.ReadSharedReq_miss_latency::.cpu.data      7950000                       # number of ReadSharedReq miss cycles
system.l2cache.ReadSharedReq_miss_latency::.cpu.dcache.prefetcher      2603559                       # number of ReadSharedReq miss cycles
system.l2cache.ReadSharedReq_miss_latency::total     27872359                       # number of ReadSharedReq miss cycles
system.l2cache.ReadSharedReq_accesses::.cpu.inst          534                       # number of ReadSharedReq accesses(hits+misses)
system.l2cache.ReadSharedReq_accesses::.cpu.data          232                       # number of ReadSharedReq accesses(hits+misses)
system.l2cache.ReadSharedReq_accesses::.cpu.dcache.prefetcher           45                       # number of ReadSharedReq accesses(hits+misses)
system.l2cache.ReadSharedReq_accesses::total          811                       # number of ReadSharedReq accesses(hits+misses)
system.l2cache.ReadSharedReq_miss_rate::.cpu.inst     0.481273                       # miss rate for ReadSharedReq accesses
system.l2cache.ReadSharedReq_miss_rate::.cpu.data     0.504310                       # miss rate for ReadSharedReq accesses
system.l2cache.ReadSharedReq_miss_rate::.cpu.dcache.prefetcher     0.844444                       # miss rate for ReadSharedReq accesses
system.l2cache.ReadSharedReq_miss_rate::total     0.508015                       # miss rate for ReadSharedReq accesses
system.l2cache.ReadSharedReq_avg_miss_latency::.cpu.inst 67388.326848                       # average ReadSharedReq miss latency
system.l2cache.ReadSharedReq_avg_miss_latency::.cpu.data 67948.717949                       # average ReadSharedReq miss latency
system.l2cache.ReadSharedReq_avg_miss_latency::.cpu.dcache.prefetcher 68514.710526                       # average ReadSharedReq miss latency
system.l2cache.ReadSharedReq_avg_miss_latency::total 67651.356796                       # average ReadSharedReq miss latency
system.l2cache.ReadSharedReq_mshr_misses::.cpu.inst          257                       # number of ReadSharedReq MSHR misses
system.l2cache.ReadSharedReq_mshr_misses::.cpu.data          117                       # number of ReadSharedReq MSHR misses
system.l2cache.ReadSharedReq_mshr_misses::.cpu.dcache.prefetcher           38                       # number of ReadSharedReq MSHR misses
system.l2cache.ReadSharedReq_mshr_misses::total          412                       # number of ReadSharedReq MSHR misses
system.l2cache.ReadSharedReq_mshr_miss_latency::.cpu.inst     15270800                       # number of ReadSharedReq MSHR miss cycles
system.l2cache.ReadSharedReq_mshr_miss_latency::.cpu.data      7014000                       # number of ReadSharedReq MSHR miss cycles
system.l2cache.ReadSharedReq_mshr_miss_latency::.cpu.dcache.prefetcher      2299559                       # number of ReadSharedReq MSHR miss cycles
system.l2cache.ReadSharedReq_mshr_miss_latency::total     24584359                       # number of ReadSharedReq MSHR miss cycles
system.l2cache.ReadSharedReq_mshr_miss_rate::.cpu.inst     0.481273                       # mshr miss rate for ReadSharedReq accesses
system.l2cache.ReadSharedReq_mshr_miss_rate::.cpu.data     0.504310                       # mshr miss rate for ReadSharedReq accesses
system.l2cache.ReadSharedReq_mshr_miss_rate::.cpu.dcache.prefetcher     0.844444                       # mshr miss rate for ReadSharedReq accesses
system.l2cache.ReadSharedReq_mshr_miss_rate::total     0.508015                       # mshr miss rate for ReadSharedReq accesses
system.l2cache.ReadSharedReq_avg_mshr_miss_latency::.cpu.inst 59419.455253                       # average ReadSharedReq mshr miss latency
system.l2cache.ReadSharedReq_avg_mshr_miss_latency::.cpu.data 59948.717949                       # average ReadSharedReq mshr miss latency
system.l2cache.ReadSharedReq_avg_mshr_miss_latency::.cpu.dcache.prefetcher 60514.710526                       # average ReadSharedReq mshr miss latency
system.l2cache.ReadSharedReq_avg_mshr_miss_latency::total 59670.774272                       # average ReadSharedReq mshr miss latency
system.l2cache.prefetcher.pwrStateResidencyTicks::UNDEFINED     41442000                       # Cumulative time (in ticks) in various power states
system.l2cache.tags.pwrStateResidencyTicks::UNDEFINED     41442000                       # Cumulative time (in ticks) in various power states
system.l2cache.tags.tagsinuse                    4096                       # Cycle average of tags in use
system.l2cache.tags.total_refs                  14019                       # Total number of references to valid blocks.
system.l2cache.tags.sampled_refs                 4550                       # Sample count of references to valid blocks.
system.l2cache.tags.avg_refs                 3.081099                       # Average number of references to valid blocks.
system.l2cache.tags.warmup_cycle                    0                       # Cycle when the warmup percentage was hit.
system.l2cache.tags.occ_blocks::.writebacks    39.783543                       # Average occupied blocks per requestor
system.l2cache.tags.occ_blocks::.cpu.inst  1126.182272                       # Average occupied blocks per requestor
system.l2cache.tags.occ_blocks::.cpu.data  1903.425036                       # Average occupied blocks per requestor
system.l2cache.tags.occ_blocks::.cpu.dcache.prefetcher   886.685245                       # Average occupied blocks per requestor
system.l2cache.tags.occ_blocks::.l2cache.prefetcher   139.923903                       # Average occupied blocks per requestor
system.l2cache.tags.occ_percent::.writebacks     0.009713                       # Average percentage of cache occupancy
system.l2cache.tags.occ_percent::.cpu.inst     0.274947                       # Average percentage of cache occupancy
system.l2cache.tags.occ_percent::.cpu.data     0.464703                       # Average percentage of cache occupancy
system.l2cache.tags.occ_percent::.cpu.dcache.prefetcher     0.216476                       # Average percentage of cache occupancy
system.l2cache.tags.occ_percent::.l2cache.prefetcher     0.034161                       # Average percentage of cache occupancy
system.l2cache.tags.occ_percent::total              1                       # Average percentage of cache occupancy
system.l2cache.tags.occ_task_id_blocks::1022          955                       # Occupied blocks per task id
system.l2cache.tags.occ_task_id_blocks::1024         3141                       # Occupied blocks per task id
system.l2cache.tags.age_task_id_blocks_1022::0            5                       # Occupied blocks per task id
system.l2cache.tags.age_task_id_blocks_1022::1           96                       # Occupied blocks per task id
system.l2cache.tags.age_task_id_blocks_1022::2          851                       # Occupied blocks per task id
system.l2cache.tags.age_task_id_blocks_1022::3            3                       # Occupied blocks per task id
system.l2cache.tags.age_task_id_blocks_1024::0          163                       # Occupied blocks per task id
system.l2cache.tags.age_task_id_blocks_1024::1          761                       # Occupied blocks per task id
system.l2cache.tags.age_task_id_blocks_1024::2         2172                       # Occupied blocks per task id
system.l2cache.tags.age_task_id_blocks_1024::3           45                       # Occupied blocks per task id
system.l2cache.tags.occ_task_id_percent::1022     0.233154                       # Percentage of cache occupancy per task id
system.l2cache.tags.occ_task_id_percent::1024     0.766846                       # Percentage of cache occupancy per task id
system.l2cache.tags.tag_accesses                14022                       # Number of tag accesses
system.l2cache.tags.data_accesses               14022                       # Number of data accesses
system.mem_ctrl.pwrStateResidencyTicks::UNDEFINED     41442000                       # Cumulative time (in ticks) in various power states
system.mem_ctrl.bytes_read::.cpu.inst           16384                       # Number of bytes read from this memory
system.mem_ctrl.bytes_read::.cpu.data            9600                       # Number of bytes read from this memory
system.mem_ctrl.bytes_read::.cpu.dcache.prefetcher         2432                       # Number of bytes read from this memory
system.mem_ctrl.bytes_read::total               28416                       # Number of bytes read from this memory
system.mem_ctrl.bytes_inst_read::.cpu.inst        16384                       # Number of instructions bytes read from this memory
system.mem_ctrl.bytes_inst_read::total          16384                       # Number of instructions bytes read from this memory
system.mem_ctrl.bytes_written::.writebacks         2176                       # Number of bytes written to this memory
system.mem_ctrl.bytes_written::total             2176                       # Number of bytes written to this memory
system.mem_ctrl.num_reads::.cpu.inst              256                       # Number of read requests responded to by this memory
system.mem_ctrl.num_reads::.cpu.data              150                       # Number of read requests responded to by this memory
system.mem_ctrl.num_reads::.cpu.dcache.prefetcher           38                       # Number of read requests responded to by this memory
system.mem_ctrl.num_reads::total                  444                       # Number of read requests responded to by this memory
system.mem_ctrl.num_writes::.writebacks            34                       # Number of write requests responded to by this memory
system.mem_ctrl.num_writes::total                  34                       # Number of write requests responded to by this memory
system.mem_ctrl.bw_read::.cpu.inst          395347715                       # Total read bandwidth from this memory (bytes/s)
system.mem_ctrl.bw_read::.cpu.data          231649052                       # Total read bandwidth from this memory (bytes/s)
system.mem_ctrl.bw_read::.cpu.dcache.prefetcher     58684426                       # Total read bandwidth from this memory (bytes/s)
system.mem_ctrl.bw_read::total              685681193                       # Total read bandwidth from this memory (bytes/s)
system.mem_ctrl.bw_inst_read::.cpu.inst     395347715                       # Instruction read bandwidth from this memory (bytes/s)
system.mem_ctrl.bw_inst_read::total         395347715                       # Instruction read bandwidth from this memory (bytes/s)
system.mem_ctrl.bw_write::.writebacks        52507118                       # Write bandwidth from this memory (bytes/s)
system.mem_ctrl.bw_write::total              52507118                       # Write bandwidth from this memory (bytes/s)
system.mem_ctrl.bw_total::.writebacks        52507118                       # Total bandwidth to/from this memory (bytes/s)
system.mem_ctrl.bw_total::.cpu.inst         395347715                       # Total bandwidth to/from this memory (bytes/s)
system.mem_ctrl.bw_total::.cpu.data         231649052                       # Total bandwidth to/from this memory (bytes/s)
system.mem_ctrl.bw_total::.cpu.dcache.prefetcher     58684426                       # Total bandwidth to/from this memory (bytes/s)
system.mem_ctrl.bw_total::total             738188311                       # Total bandwidth to/from this memory (bytes/s)

---------- End Simulation Statistics   ----------
