
---------- Begin Simulation Statistics ----------
final_tick                                 1186764800                       # Number of ticks from beginning of simulation (restored from checkpoints and never reset)
host_inst_rate                                 174153                       # Simulator instruction rate (inst/s)
host_mem_usage                                4406824                       # Number of bytes of host memory used
host_op_rate                                   306493                       # Simulator op (including micro ops) rate (op/s)
host_seconds                                    13.44                       # Real time elapsed on the host
host_tick_rate                               88298760                       # Simulator tick rate (ticks/s)
sim_freq                                 1000000000000                       # Frequency of simulated ticks
sim_insts                                     2340656                       # Number of instructions simulated
sim_ops                                       4119367                       # Number of ops (including micro ops) simulated
sim_seconds                                  0.001187                       # Number of seconds simulated
sim_ticks                                  1186764800                       # Number of ticks simulated
system.cpu.branchPred.BTBCorrect                    0                       # Number of correct BTB predictions (this stat may not work properly.
system.cpu.branchPred.BTBHitPct              0.000000                       # BTB Hit Percentage
system.cpu.branchPred.BTBHits                       0                       # Number of BTB hits
system.cpu.branchPred.BTBLookups               491569                       # Number of BTB lookups
system.cpu.branchPred.RASInCorrect                  8                       # Number of incorrect RAS predictions.
system.cpu.branchPred.condIncorrect             26223                       # Number of conditional branches incorrect
system.cpu.branchPred.condPredicted            518620                       # Number of conditional branches predicted
system.cpu.branchPred.indirectHits             266936                       # Number of indirect target hits.
system.cpu.branchPred.indirectLookups          491569                       # Number of indirect predictor lookups.
system.cpu.branchPred.indirectMisses           224633                       # Number of indirect misses.
system.cpu.branchPred.lookups                  553799                       # Number of BP lookups
system.cpu.branchPred.usedRAS                   15772                       # Number of times the RAS was used to get a target.
system.cpu.branchPredindirectMispredicted        13315                       # Number of mispredicted indirect branches.
system.cpu.cc_regfile_reads                   2673617                       # number of cc regfile reads
system.cpu.cc_regfile_writes                  2115310                       # number of cc regfile writes
system.cpu.commit.amos                              0                       # Number of atomic instructions committed
system.cpu.commit.branchMispredicts             26351                       # The number of times a branch was mispredicted
system.cpu.commit.branches                     401544                       # Number of branches committed
system.cpu.commit.bw_lim_events                679256                       # number cycles where commit BW limit reached
system.cpu.commit.commitNonSpecStalls             742                       # The number of times commit has been forced to stall to communicate backwards
system.cpu.commit.commitSquashedInsts          929719                       # The number of squashed insts skipped by commit
system.cpu.commit.committedInsts              2340656                       # Number of instructions committed
system.cpu.commit.committedOps                4119367                       # Number of ops (including micro ops) committed
system.cpu.commit.committed_per_cycle::samples      2550812                       # Number of insts commited each cycle
system.cpu.commit.committed_per_cycle::mean     1.614924                       # Number of insts commited each cycle
system.cpu.commit.committed_per_cycle::stdev     1.723445                       # Number of insts commited each cycle
system.cpu.commit.committed_per_cycle::underflows            0      0.00%      0.00% # Number of insts commited each cycle
system.cpu.commit.committed_per_cycle::0      1188338     46.59%     46.59% # Number of insts commited each cycle
system.cpu.commit.committed_per_cycle::1       224271      8.79%     55.38% # Number of insts commited each cycle
system.cpu.commit.committed_per_cycle::2       198769      7.79%     63.17% # Number of insts commited each cycle
system.cpu.commit.committed_per_cycle::3       260178     10.20%     73.37% # Number of insts commited each cycle
system.cpu.commit.committed_per_cycle::4       679256     26.63%    100.00% # Number of insts commited each cycle
system.cpu.commit.committed_per_cycle::overflows            0      0.00%    100.00% # Number of insts commited each cycle
system.cpu.commit.committed_per_cycle::min_value            0                       # Number of insts commited each cycle
system.cpu.commit.committed_per_cycle::max_value            4                       # Number of insts commited each cycle
system.cpu.commit.committed_per_cycle::total      2550812                       # Number of insts commited each cycle
system.cpu.commit.fp_insts                      92493                       # Number of committed floating point instructions.
system.cpu.commit.function_calls                13714                       # Number of function calls committed.
system.cpu.commit.int_insts                   4048396                       # Number of committed integer instructions.
system.cpu.commit.loads                        554408                       # Number of loads committed
system.cpu.commit.membars                           1                       # Number of memory barriers committed
system.cpu.commit.op_class_0::No_OpClass        22516      0.55%      0.55% # Class of committed instruction
system.cpu.commit.op_class_0::IntAlu          3231812     78.45%     79.00% # Class of committed instruction
system.cpu.commit.op_class_0::IntMult            4368      0.11%     79.11% # Class of committed instruction
system.cpu.commit.op_class_0::IntDiv            37707      0.92%     80.02% # Class of committed instruction
system.cpu.commit.op_class_0::FloatAdd           3657      0.09%     80.11% # Class of committed instruction
system.cpu.commit.op_class_0::FloatCmp              0      0.00%     80.11% # Class of committed instruction
system.cpu.commit.op_class_0::FloatCvt           1216      0.03%     80.14% # Class of committed instruction
system.cpu.commit.op_class_0::FloatMult             0      0.00%     80.14% # Class of committed instruction
system.cpu.commit.op_class_0::FloatMultAcc            0      0.00%     80.14% # Class of committed instruction
system.cpu.commit.op_class_0::FloatDiv              0      0.00%     80.14% # Class of committed instruction
system.cpu.commit.op_class_0::FloatMisc             0      0.00%     80.14% # Class of committed instruction
system.cpu.commit.op_class_0::FloatSqrt             0      0.00%     80.14% # Class of committed instruction
system.cpu.commit.op_class_0::SimdAdd            6262      0.15%     80.29% # Class of committed instruction
system.cpu.commit.op_class_0::SimdAddAcc            0      0.00%     80.29% # Class of committed instruction
system.cpu.commit.op_class_0::SimdAlu           14333      0.35%     80.64% # Class of committed instruction
system.cpu.commit.op_class_0::SimdCmp               0      0.00%     80.64% # Class of committed instruction
system.cpu.commit.op_class_0::SimdCvt           15282      0.37%     81.01% # Class of committed instruction
system.cpu.commit.op_class_0::SimdMisc          13478      0.33%     81.34% # Class of committed instruction
system.cpu.commit.op_class_0::SimdMult              0      0.00%     81.34% # Class of committed instruction
system.cpu.commit.op_class_0::SimdMultAcc            0      0.00%     81.34% # Class of committed instruction
system.cpu.commit.op_class_0::SimdShift          1186      0.03%     81.37% # Class of committed instruction
system.cpu.commit.op_class_0::SimdShiftAcc            0      0.00%     81.37% # Class of committed instruction
system.cpu.commit.op_class_0::SimdDiv               0      0.00%     81.37% # Class of committed instruction
system.cpu.commit.op_class_0::SimdSqrt              0      0.00%     81.37% # Class of committed instruction
system.cpu.commit.op_class_0::SimdFloatAdd            0      0.00%     81.37% # Class of committed instruction
system.cpu.commit.op_class_0::SimdFloatAlu            0      0.00%     81.37% # Class of committed instruction
system.cpu.commit.op_class_0::SimdFloatCmp            0      0.00%     81.37% # Class of committed instruction
system.cpu.commit.op_class_0::SimdFloatCvt            0      0.00%     81.37% # Class of committed instruction
system.cpu.commit.op_class_0::SimdFloatDiv            0      0.00%     81.37% # Class of committed instruction
system.cpu.commit.op_class_0::SimdFloatMisc            0      0.00%     81.37% # Class of committed instruction
system.cpu.commit.op_class_0::SimdFloatMult            0      0.00%     81.37% # Class of committed instruction
system.cpu.commit.op_class_0::SimdFloatMultAcc            0      0.00%     81.37% # Class of committed instruction
system.cpu.commit.op_class_0::SimdFloatSqrt            0      0.00%     81.37% # Class of committed instruction
system.cpu.commit.op_class_0::SimdReduceAdd            0      0.00%     81.37% # Class of committed instruction
system.cpu.commit.op_class_0::SimdReduceAlu            0      0.00%     81.37% # Class of committed instruction
system.cpu.commit.op_class_0::SimdReduceCmp            0      0.00%     81.37% # Class of committed instruction
system.cpu.commit.op_class_0::SimdFloatReduceAdd            0      0.00%     81.37% # Class of committed instruction
system.cpu.commit.op_class_0::SimdFloatReduceCmp            0      0.00%     81.37% # Class of committed instruction
system.cpu.commit.op_class_0::SimdAes               0      0.00%     81.37% # Class of committed instruction
system.cpu.commit.op_class_0::SimdAesMix            0      0.00%     81.37% # Class of committed instruction
system.cpu.commit.op_class_0::SimdSha1Hash            0      0.00%     81.37% # Class of committed instruction
system.cpu.commit.op_class_0::SimdSha1Hash2            0      0.00%     81.37% # Class of committed instruction
system.cpu.commit.op_class_0::SimdSha256Hash            0      0.00%     81.37% # Class of committed instruction
system.cpu.commit.op_class_0::SimdSha256Hash2            0      0.00%     81.37% # Class of committed instruction
system.cpu.commit.op_class_0::SimdShaSigma2            0      0.00%     81.37% # Class of committed instruction
system.cpu.commit.op_class_0::SimdShaSigma3            0      0.00%     81.37% # Class of committed instruction
system.cpu.commit.op_class_0::SimdPredAlu            0      0.00%     81.37% # Class of committed instruction
system.cpu.commit.op_class_0::MemRead          533096     12.94%     94.31% # Class of committed instruction
system.cpu.commit.op_class_0::MemWrite         200519      4.87%     99.18% # Class of committed instruction
system.cpu.commit.op_class_0::FloatMemRead        21312      0.52%     99.69% # Class of committed instruction
system.cpu.commit.op_class_0::FloatMemWrite        12623      0.31%    100.00% # Class of committed instruction
system.cpu.commit.op_class_0::IprAccess             0      0.00%    100.00% # Class of committed instruction
system.cpu.commit.op_class_0::InstPrefetch            0      0.00%    100.00% # Class of committed instruction
system.cpu.commit.op_class_0::total           4119367                       # Class of committed instruction
system.cpu.commit.refs                         767550                       # Number of memory references committed
system.cpu.commit.swp_count                         0                       # Number of s/w prefetches committed
system.cpu.commit.vec_insts                         0                       # Number of committed Vector instructions.
system.cpu.committedInsts                     2340656                       # Number of Instructions Simulated
system.cpu.committedOps                       4119367                       # Number of Ops (including micro ops) Simulated
system.cpu.cpi                               1.267556                       # CPI: Cycles Per Instruction
system.cpu.cpi_total                         1.267556                       # CPI: Total CPI of All Threads
system.cpu.dcache.prefetcher.num_hwpf_issued         8039                       # number of hwpf issued
system.cpu.dcache.prefetcher.pfBufferHit        33745                       # number of redundant prefetches already in prefetch queue
system.cpu.dcache.prefetcher.pfIdentified        48884                       # number of prefetch candidates identified
system.cpu.dcache.prefetcher.pfInCache              0                       # number of redundant prefetches already in cache/mshr dropped
system.cpu.dcache.prefetcher.pfRemovedFull            0                       # number of prefetches dropped due to prefetch queue size
system.cpu.dcache.prefetcher.pfSpanPage          4608                       # number of prefetches that crossed the page
system.cpu.decode.BlockedCycles               1034358                       # Number of cycles decode is blocked
system.cpu.decode.DecodedInsts                5282309                       # Number of instructions handled by decode
system.cpu.decode.IdleCycles                   348002                       # Number of cycles decode is idle
system.cpu.decode.RunCycles                   1304373                       # Number of cycles decode is running
system.cpu.decode.SquashCycles                  26423                       # Number of cycles decode is squashing
system.cpu.decode.UnblockCycles                 91536                       # Number of cycles decode is unblocking
system.cpu.dtb.rdAccesses                      641464                       # TLB accesses on read requests
system.cpu.dtb.rdMisses                          1974                       # TLB misses on read requests
system.cpu.dtb.wrAccesses                      234429                       # TLB accesses on write requests
system.cpu.dtb.wrMisses                           159                       # TLB misses on write requests
system.cpu.fetch.Branches                      553799                       # Number of branches that fetch encountered
system.cpu.fetch.CacheLines                    291447                       # Number of cache lines fetched
system.cpu.fetch.Cycles                       2393916                       # Number of cycles fetch has run and was not squashing or blocked
system.cpu.fetch.IcacheSquashes                  4847                       # Number of outstanding Icache misses that were squashed
system.cpu.fetch.Insts                        3144170                       # Number of instructions fetch has processed
system.cpu.fetch.MiscStallCycles                  176                       # Number of cycles fetch has spent waiting on interrupts, or bad addresses, or out of MSHRs
system.cpu.fetch.PendingQuiesceStallCycles            6                       # Number of stall cycles due to pending quiesce instructions
system.cpu.fetch.PendingTrapStallCycles           865                       # Number of stall cycles due to pending traps
system.cpu.fetch.SquashCycles                   52846                       # Number of cycles fetch has spent squashing
system.cpu.fetch.branchRate                  0.186658                       # Number of branch fetches per cycle
system.cpu.fetch.icacheStallCycles             383306                       # Number of cycles fetch is stalled on an Icache miss
system.cpu.fetch.predictedBranches             282708                       # Number of branches that fetch has predicted taken
system.cpu.fetch.rate                        1.059745                       # Number of inst fetches per cycle
system.cpu.fetch.rateDist::samples            2804692                       # Number of instructions fetched each cycle (Total)
system.cpu.fetch.rateDist::mean              1.984104                       # Number of instructions fetched each cycle (Total)
system.cpu.fetch.rateDist::stdev             1.926371                       # Number of instructions fetched each cycle (Total)
system.cpu.fetch.rateDist::underflows               0      0.00%      0.00% # Number of instructions fetched each cycle (Total)
system.cpu.fetch.rateDist::0                  1287320     45.90%     45.90% # Number of instructions fetched each cycle (Total)
system.cpu.fetch.rateDist::1                    95242      3.40%     49.29% # Number of instructions fetched each cycle (Total)
system.cpu.fetch.rateDist::2                    66244      2.36%     51.66% # Number of instructions fetched each cycle (Total)
system.cpu.fetch.rateDist::3                    86472      3.08%     54.74% # Number of instructions fetched each cycle (Total)
system.cpu.fetch.rateDist::4                  1269414     45.26%    100.00% # Number of instructions fetched each cycle (Total)
system.cpu.fetch.rateDist::overflows                0      0.00%    100.00% # Number of instructions fetched each cycle (Total)
system.cpu.fetch.rateDist::min_value                0                       # Number of instructions fetched each cycle (Total)
system.cpu.fetch.rateDist::max_value                4                       # Number of instructions fetched each cycle (Total)
system.cpu.fetch.rateDist::total              2804692                       # Number of instructions fetched each cycle (Total)
system.cpu.fp_regfile_reads                    154346                       # number of floating regfile reads
system.cpu.fp_regfile_writes                    83992                       # number of floating regfile writes
system.cpu.fuPool.fu_ticks_busy::IntALU(0)    245509600                       # Total ticks fu was busy
system.cpu.fuPool.fu_ticks_busy::IntALU(1)    245509600                       # Total ticks fu was busy
system.cpu.fuPool.fu_ticks_busy::IntALU(2)    245509600                       # Total ticks fu was busy
system.cpu.fuPool.fu_ticks_busy::IntALU(3)    245509600                       # Total ticks fu was busy
system.cpu.fuPool.fu_ticks_busy::IntALU(4)    245509600                       # Total ticks fu was busy
system.cpu.fuPool.fu_ticks_busy::IntALU(5)    245509600                       # Total ticks fu was busy
system.cpu.fuPool.fu_ticks_busy::IntMultDiv(0)      9209600                       # Total ticks fu was busy
system.cpu.fuPool.fu_ticks_busy::IntMultDiv(1)      9208800                       # Total ticks fu was busy
system.cpu.fuPool.fu_ticks_busy::FP_ALU(0)       654400                       # Total ticks fu was busy
system.cpu.fuPool.fu_ticks_busy::FP_ALU(1)       654400                       # Total ticks fu was busy
system.cpu.fuPool.fu_ticks_busy::FP_ALU(2)       654400                       # Total ticks fu was busy
system.cpu.fuPool.fu_ticks_busy::FP_ALU(3)       654000                       # Total ticks fu was busy
system.cpu.fuPool.fu_ticks_busy::FP_MultDiv(0)            0                       # Total ticks fu was busy
system.cpu.fuPool.fu_ticks_busy::FP_MultDiv(1)            0                       # Total ticks fu was busy
system.cpu.fuPool.fu_ticks_busy::SIMD_Unit(0)      5866800                       # Total ticks fu was busy
system.cpu.fuPool.fu_ticks_busy::SIMD_Unit(1)      5935200                       # Total ticks fu was busy
system.cpu.fuPool.fu_ticks_busy::SIMD_Unit(2)      5976400                       # Total ticks fu was busy
system.cpu.fuPool.fu_ticks_busy::SIMD_Unit(3)      5811200                       # Total ticks fu was busy
system.cpu.fuPool.fu_ticks_busy::PredALU(0)            0                       # Total ticks fu was busy
system.cpu.fuPool.fu_ticks_busy::RdWrPort(0)     89198400                       # Total ticks fu was busy
system.cpu.fuPool.fu_ticks_busy::RdWrPort(1)     89217600                       # Total ticks fu was busy
system.cpu.fuPool.fu_ticks_busy::RdWrPort(2)     89223600                       # Total ticks fu was busy
system.cpu.fuPool.fu_ticks_busy::RdWrPort(3)     89191200                       # Total ticks fu was busy
system.cpu.fuPool.fu_ticks_busy::IprPort(0)            0                       # Total ticks fu was busy
system.cpu.fuPool.fu_ticks_busy::total     1874513600                       # Total ticks fu was busy
system.cpu.icache.prefetcher.num_hwpf_issued            0                       # number of hwpf issued
system.cpu.icache.prefetcher.pfBufferHit            0                       # number of redundant prefetches already in prefetch queue
system.cpu.icache.prefetcher.pfIdentified            0                       # number of prefetch candidates identified
system.cpu.icache.prefetcher.pfInCache              0                       # number of redundant prefetches already in cache/mshr dropped
system.cpu.icache.prefetcher.pfRemovedFull            0                       # number of prefetches dropped due to prefetch queue size
system.cpu.icache.prefetcher.pfSpanPage             0                       # number of prefetches that crossed the page
system.cpu.idleCycles                          162221                       # Total number of cycles that the CPU has spent unscheduled due to idling
system.cpu.iew.branchMispredicts                31112                       # Number of branch mispredicts detected at execute
system.cpu.iew.exec_branches                   433671                       # Number of branches executed
system.cpu.iew.exec_nop                             0                       # number of nop insts executed
system.cpu.iew.exec_rate                     1.576589                       # Inst execution rate
system.cpu.iew.exec_refs                       877533                       # number of memory reference insts executed
system.cpu.iew.exec_stores                     234311                       # Number of stores executed
system.cpu.iew.exec_swp                             0                       # number of swp insts executed
system.cpu.iew.iewBlockCycles                  699991                       # Number of cycles IEW is blocking
system.cpu.iew.iewDispLoadInsts                676375                       # Number of dispatched load instructions
system.cpu.iew.iewDispNonSpecInsts                936                       # Number of dispatched non-speculative instructions
system.cpu.iew.iewDispSquashedInsts               535                       # Number of squashed instructions skipped by dispatch
system.cpu.iew.iewDispStoreInsts               246839                       # Number of dispatched store instructions
system.cpu.iew.iewDispatchedInsts             5049036                       # Number of instructions dispatched to IQ
system.cpu.iew.iewExecLoadInsts                643222                       # Number of load instructions executed
system.cpu.iew.iewExecSquashedInsts             37716                       # Number of squashed instructions skipped in execute
system.cpu.iew.iewExecutedInsts               4677603                       # Number of executed instructions
system.cpu.iew.iewIQFullEvents                   3270                       # Number of times the IQ has become full, causing a stall
system.cpu.iew.iewIdleCycles                        0                       # Number of cycles IEW is idle
system.cpu.iew.iewLSQFullEvents                  8907                       # Number of times the LSQ has become full, causing a stall
system.cpu.iew.iewSquashCycles                  26423                       # Number of cycles IEW is squashing
system.cpu.iew.iewUnblockCycles                 14996                       # Number of cycles IEW is unblocking
system.cpu.iew.lsq.thread0.blockedLoads             0                       # Number of blocked loads due to partial load-store forwarding
system.cpu.iew.lsq.thread0.cacheBlocked           641                       # Number of times an access to memory failed due to the cache being blocked
system.cpu.iew.lsq.thread0.forwLoads            44375                       # Number of loads that had data forwarded from stores
system.cpu.iew.lsq.thread0.ignoredResponses          266                       # Number of memory responses ignored because the instruction is squashed
system.cpu.iew.lsq.thread0.invAddrLoads             0                       # Number of loads ignored due to an invalid address
system.cpu.iew.lsq.thread0.invAddrSwpfs             0                       # Number of software prefetches ignored due to an invalid address
system.cpu.iew.lsq.thread0.memOrderViolation           83                       # Number of memory ordering violations
system.cpu.iew.lsq.thread0.rescheduledLoads           48                       # Number of loads that were rescheduled
system.cpu.iew.lsq.thread0.squashedLoads       121965                       # Number of loads squashed
system.cpu.iew.lsq.thread0.squashedStores        33696                       # Number of stores squashed
system.cpu.iew.memOrderViolationEvents             83                       # Number of memory order violations
system.cpu.iew.predictedNotTakenIncorrect        22425                       # Number of branches that were predicted not taken incorrectly
system.cpu.iew.predictedTakenIncorrect           8687                       # Number of branches that were predicted taken incorrectly
system.cpu.iew.wb_consumers                   6401021                       # num instructions consuming a value
system.cpu.iew.wb_count                       4654179                       # cumulative count of insts written-back
system.cpu.iew.wb_fanout                     0.572805                       # average fanout of values written-back
system.cpu.iew.wb_producers                   3666538                       # num instructions producing a value
system.cpu.iew.wb_rate                       1.568694                       # insts written-back per cycle
system.cpu.iew.wb_sent                        4661409                       # cumulative count of insts sent to commit
system.cpu.int_regfile_reads                  7213021                       # number of integer regfile reads
system.cpu.int_regfile_writes                 3980171                       # number of integer regfile writes
system.cpu.ipc                               0.788920                       # IPC: Instructions Per Cycle
system.cpu.ipc_total                         0.788920                       # IPC: Total IPC of All Threads
system.cpu.iq.FU_type_0::No_OpClass             29035      0.62%      0.62% # Type of FU issued
system.cpu.iq.FU_type_0::IntAlu               3682645     78.10%     78.72% # Type of FU issued
system.cpu.iq.FU_type_0::IntMult                 4405      0.09%     78.81% # Type of FU issued
system.cpu.iq.FU_type_0::IntDiv                 41641      0.88%     79.69% # Type of FU issued
system.cpu.iq.FU_type_0::FloatAdd                5279      0.11%     79.80% # Type of FU issued
system.cpu.iq.FU_type_0::FloatCmp                   0      0.00%     79.80% # Type of FU issued
system.cpu.iq.FU_type_0::FloatCvt                1264      0.03%     79.83% # Type of FU issued
system.cpu.iq.FU_type_0::FloatMult                  0      0.00%     79.83% # Type of FU issued
system.cpu.iq.FU_type_0::FloatMultAcc               0      0.00%     79.83% # Type of FU issued
system.cpu.iq.FU_type_0::FloatDiv                   0      0.00%     79.83% # Type of FU issued
system.cpu.iq.FU_type_0::FloatMisc                  0      0.00%     79.83% # Type of FU issued
system.cpu.iq.FU_type_0::FloatSqrt                  0      0.00%     79.83% # Type of FU issued
system.cpu.iq.FU_type_0::SimdAdd                 6954      0.15%     79.98% # Type of FU issued
system.cpu.iq.FU_type_0::SimdAddAcc                 0      0.00%     79.98% # Type of FU issued
system.cpu.iq.FU_type_0::SimdAlu                18338      0.39%     80.37% # Type of FU issued
system.cpu.iq.FU_type_0::SimdCmp                    0      0.00%     80.37% # Type of FU issued
system.cpu.iq.FU_type_0::SimdCvt                17218      0.37%     80.73% # Type of FU issued
system.cpu.iq.FU_type_0::SimdMisc               14092      0.30%     81.03% # Type of FU issued
system.cpu.iq.FU_type_0::SimdMult                   0      0.00%     81.03% # Type of FU issued
system.cpu.iq.FU_type_0::SimdMultAcc                0      0.00%     81.03% # Type of FU issued
system.cpu.iq.FU_type_0::SimdShift               2372      0.05%     81.08% # Type of FU issued
system.cpu.iq.FU_type_0::SimdShiftAcc               0      0.00%     81.08% # Type of FU issued
system.cpu.iq.FU_type_0::SimdDiv                    0      0.00%     81.08% # Type of FU issued
system.cpu.iq.FU_type_0::SimdSqrt                   0      0.00%     81.08% # Type of FU issued
system.cpu.iq.FU_type_0::SimdFloatAdd               0      0.00%     81.08% # Type of FU issued
system.cpu.iq.FU_type_0::SimdFloatAlu               0      0.00%     81.08% # Type of FU issued
system.cpu.iq.FU_type_0::SimdFloatCmp               0      0.00%     81.08% # Type of FU issued
system.cpu.iq.FU_type_0::SimdFloatCvt               0      0.00%     81.08% # Type of FU issued
system.cpu.iq.FU_type_0::SimdFloatDiv               0      0.00%     81.08% # Type of FU issued
system.cpu.iq.FU_type_0::SimdFloatMisc              0      0.00%     81.08% # Type of FU issued
system.cpu.iq.FU_type_0::SimdFloatMult              0      0.00%     81.08% # Type of FU issued
system.cpu.iq.FU_type_0::SimdFloatMultAcc            0      0.00%     81.08% # Type of FU issued
system.cpu.iq.FU_type_0::SimdFloatSqrt              0      0.00%     81.08% # Type of FU issued
system.cpu.iq.FU_type_0::SimdReduceAdd              0      0.00%     81.08% # Type of FU issued
system.cpu.iq.FU_type_0::SimdReduceAlu              0      0.00%     81.08% # Type of FU issued
system.cpu.iq.FU_type_0::SimdReduceCmp              0      0.00%     81.08% # Type of FU issued
system.cpu.iq.FU_type_0::SimdFloatReduceAdd            0      0.00%     81.08% # Type of FU issued
system.cpu.iq.FU_type_0::SimdFloatReduceCmp            0      0.00%     81.08% # Type of FU issued
system.cpu.iq.FU_type_0::SimdAes                    0      0.00%     81.08% # Type of FU issued
system.cpu.iq.FU_type_0::SimdAesMix                 0      0.00%     81.08% # Type of FU issued
system.cpu.iq.FU_type_0::SimdSha1Hash               0      0.00%     81.08% # Type of FU issued
system.cpu.iq.FU_type_0::SimdSha1Hash2              0      0.00%     81.08% # Type of FU issued
system.cpu.iq.FU_type_0::SimdSha256Hash             0      0.00%     81.08% # Type of FU issued
system.cpu.iq.FU_type_0::SimdSha256Hash2            0      0.00%     81.08% # Type of FU issued
system.cpu.iq.FU_type_0::SimdShaSigma2              0      0.00%     81.08% # Type of FU issued
system.cpu.iq.FU_type_0::SimdShaSigma3              0      0.00%     81.08% # Type of FU issued
system.cpu.iq.FU_type_0::SimdPredAlu                0      0.00%     81.08% # Type of FU issued
system.cpu.iq.FU_type_0::MemRead               626923     13.30%     94.38% # Type of FU issued
system.cpu.iq.FU_type_0::MemWrite              223315      4.74%     99.11% # Type of FU issued
system.cpu.iq.FU_type_0::FloatMemRead           27780      0.59%     99.70% # Type of FU issued
system.cpu.iq.FU_type_0::FloatMemWrite          14061      0.30%    100.00% # Type of FU issued
system.cpu.iq.FU_type_0::IprAccess                  0      0.00%    100.00% # Type of FU issued
system.cpu.iq.FU_type_0::InstPrefetch               0      0.00%    100.00% # Type of FU issued
system.cpu.iq.FU_type_0::total                4715322                       # Type of FU issued
system.cpu.iq.fp_alu_accesses                  110718                       # Number of floating point alu accesses
system.cpu.iq.fp_inst_queue_reads              222776                       # Number of floating instruction queue reads
system.cpu.iq.fp_inst_queue_wakeup_accesses       106937                       # Number of floating instruction queue wakeup accesses
system.cpu.iq.fp_inst_queue_writes             154625                       # Number of floating instruction queue writes
system.cpu.iq.fu_busy_cnt                           0                       # FU busy when requested
system.cpu.iq.fu_busy_rate                          0                       # FU busy rate (busy events/executed inst)
system.cpu.iq.fu_full::No_OpClass                   0                       # attempts to use FU when none available
system.cpu.iq.fu_full::IntAlu                       0                       # attempts to use FU when none available
system.cpu.iq.fu_full::IntMult                      0                       # attempts to use FU when none available
system.cpu.iq.fu_full::IntDiv                       0                       # attempts to use FU when none available
system.cpu.iq.fu_full::FloatAdd                     0                       # attempts to use FU when none available
system.cpu.iq.fu_full::FloatCmp                     0                       # attempts to use FU when none available
system.cpu.iq.fu_full::FloatCvt                     0                       # attempts to use FU when none available
system.cpu.iq.fu_full::FloatMult                    0                       # attempts to use FU when none available
system.cpu.iq.fu_full::FloatMultAcc                 0                       # attempts to use FU when none available
system.cpu.iq.fu_full::FloatDiv                     0                       # attempts to use FU when none available
system.cpu.iq.fu_full::FloatMisc                    0                       # attempts to use FU when none available
system.cpu.iq.fu_full::FloatSqrt                    0                       # attempts to use FU when none available
system.cpu.iq.fu_full::SimdAdd                      0                       # attempts to use FU when none available
system.cpu.iq.fu_full::SimdAddAcc                   0                       # attempts to use FU when none available
system.cpu.iq.fu_full::SimdAlu                      0                       # attempts to use FU when none available
system.cpu.iq.fu_full::SimdCmp                      0                       # attempts to use FU when none available
system.cpu.iq.fu_full::SimdCvt                      0                       # attempts to use FU when none available
system.cpu.iq.fu_full::SimdMisc                     0                       # attempts to use FU when none available
system.cpu.iq.fu_full::SimdMult                     0                       # attempts to use FU when none available
system.cpu.iq.fu_full::SimdMultAcc                  0                       # attempts to use FU when none available
system.cpu.iq.fu_full::SimdShift                    0                       # attempts to use FU when none available
system.cpu.iq.fu_full::SimdShiftAcc                 0                       # attempts to use FU when none available
system.cpu.iq.fu_full::SimdDiv                      0                       # attempts to use FU when none available
system.cpu.iq.fu_full::SimdSqrt                     0                       # attempts to use FU when none available
system.cpu.iq.fu_full::SimdFloatAdd                 0                       # attempts to use FU when none available
system.cpu.iq.fu_full::SimdFloatAlu                 0                       # attempts to use FU when none available
system.cpu.iq.fu_full::SimdFloatCmp                 0                       # attempts to use FU when none available
system.cpu.iq.fu_full::SimdFloatCvt                 0                       # attempts to use FU when none available
system.cpu.iq.fu_full::SimdFloatDiv                 0                       # attempts to use FU when none available
system.cpu.iq.fu_full::SimdFloatMisc                0                       # attempts to use FU when none available
system.cpu.iq.fu_full::SimdFloatMult                0                       # attempts to use FU when none available
system.cpu.iq.fu_full::SimdFloatMultAcc             0                       # attempts to use FU when none available
system.cpu.iq.fu_full::SimdFloatSqrt                0                       # attempts to use FU when none available
system.cpu.iq.fu_full::SimdReduceAdd                0                       # attempts to use FU when none available
system.cpu.iq.fu_full::SimdReduceAlu                0                       # attempts to use FU when none available
system.cpu.iq.fu_full::SimdReduceCmp                0                       # attempts to use FU when none available
system.cpu.iq.fu_full::SimdFloatReduceAdd            0                       # attempts to use FU when none available
system.cpu.iq.fu_full::SimdFloatReduceCmp            0                       # attempts to use FU when none available
system.cpu.iq.fu_full::SimdAes                      0                       # attempts to use FU when none available
system.cpu.iq.fu_full::SimdAesMix                   0                       # attempts to use FU when none available
system.cpu.iq.fu_full::SimdSha1Hash                 0                       # attempts to use FU when none available
system.cpu.iq.fu_full::SimdSha1Hash2                0                       # attempts to use FU when none available
system.cpu.iq.fu_full::SimdSha256Hash               0                       # attempts to use FU when none available
system.cpu.iq.fu_full::SimdSha256Hash2              0                       # attempts to use FU when none available
system.cpu.iq.fu_full::SimdShaSigma2                0                       # attempts to use FU when none available
system.cpu.iq.fu_full::SimdShaSigma3                0                       # attempts to use FU when none available
system.cpu.iq.fu_full::SimdPredAlu                  0                       # attempts to use FU when none available
system.cpu.iq.fu_full::MemRead                      0                       # attempts to use FU when none available
system.cpu.iq.fu_full::MemWrite                     0                       # attempts to use FU when none available
system.cpu.iq.fu_full::FloatMemRead                 0                       # attempts to use FU when none available
system.cpu.iq.fu_full::FloatMemWrite                0                       # attempts to use FU when none available
system.cpu.iq.fu_full::IprAccess                    0                       # attempts to use FU when none available
system.cpu.iq.fu_full::InstPrefetch                 0                       # attempts to use FU when none available
system.cpu.iq.int_alu_accesses                4575569                       # Number of integer alu accesses
system.cpu.iq.int_inst_queue_reads           12032017                       # Number of integer instruction queue reads
system.cpu.iq.int_inst_queue_wakeup_accesses      4547242                       # Number of integer instruction queue wakeup accesses
system.cpu.iq.int_inst_queue_writes           5824152                       # Number of integer instruction queue writes
system.cpu.iq.iqInstsAdded                    5047916                       # Number of instructions added to the IQ (excludes non-spec)
system.cpu.iq.iqInstsIssued                   4715322                       # Number of instructions issued
system.cpu.iq.iqNonSpecInstsAdded                1120                       # Number of non-speculative instructions added to the IQ
system.cpu.iq.iqSquashedInstsExamined          929658                       # Number of squashed instructions iterated over during squash; mainly for profiling
system.cpu.iq.iqSquashedInstsIssued             19460                       # Number of squashed instructions issued
system.cpu.iq.iqSquashedNonSpecRemoved            378                       # Number of squashed non-spec instructions that were removed
system.cpu.iq.iqSquashedOperandsExamined      1380028                       # Number of squashed operands that are examined and possibly removed from graph
system.cpu.iq.issued_per_cycle::samples       2804692                       # Number of insts issued each cycle
system.cpu.iq.issued_per_cycle::mean         1.681226                       # Number of insts issued each cycle
system.cpu.iq.issued_per_cycle::stdev        1.664549                       # Number of insts issued each cycle
system.cpu.iq.issued_per_cycle::underflows            0      0.00%      0.00% # Number of insts issued each cycle
system.cpu.iq.issued_per_cycle::0             1202095     42.86%     42.86% # Number of insts issued each cycle
system.cpu.iq.issued_per_cycle::1              206468      7.36%     50.22% # Number of insts issued each cycle
system.cpu.iq.issued_per_cycle::2              341825     12.19%     62.41% # Number of insts issued each cycle
system.cpu.iq.issued_per_cycle::3              392012     13.98%     76.39% # Number of insts issued each cycle
system.cpu.iq.issued_per_cycle::4              662292     23.61%    100.00% # Number of insts issued each cycle
system.cpu.iq.issued_per_cycle::overflows            0      0.00%    100.00% # Number of insts issued each cycle
system.cpu.iq.issued_per_cycle::min_value            0                       # Number of insts issued each cycle
system.cpu.iq.issued_per_cycle::max_value            4                       # Number of insts issued each cycle
system.cpu.iq.issued_per_cycle::total         2804692                       # Number of insts issued each cycle
system.cpu.iq.rate                           1.589302                       # Inst issue rate
system.cpu.iq.vec_alu_accesses                      0                       # Number of vector alu accesses
system.cpu.iq.vec_inst_queue_reads                  0                       # Number of vector instruction queue reads
system.cpu.iq.vec_inst_queue_wakeup_accesses            0                       # Number of vector instruction queue wakeup accesses
system.cpu.iq.vec_inst_queue_writes                 0                       # Number of vector instruction queue writes
system.cpu.itb.rdAccesses                           0                       # TLB accesses on read requests
system.cpu.itb.rdMisses                             0                       # TLB misses on read requests
system.cpu.itb.wrAccesses                      291596                       # TLB accesses on write requests
system.cpu.itb.wrMisses                           400                       # TLB misses on write requests
system.cpu.memDep0.conflictingLoads              8992                       # Number of conflicting loads.
system.cpu.memDep0.conflictingStores             2618                       # Number of conflicting stores.
system.cpu.memDep0.insertedLoads               676375                       # Number of loads inserted to the mem dependence unit.
system.cpu.memDep0.insertedStores              246839                       # Number of stores inserted to the mem dependence unit.
system.cpu.misc_regfile_reads                 1784748                       # number of misc regfile reads
system.cpu.misc_regfile_writes                    684                       # number of misc regfile writes
system.cpu.numCycles                          2966913                       # number of cpu cycles simulated
system.cpu.numWorkItemsCompleted                    0                       # number of work items this cpu completed
system.cpu.numWorkItemsStarted                      0                       # number of work items this cpu started
system.cpu.process.numSyscalls                     57                       # Number of system calls
system.cpu.rename.BlockCycles                  846013                       # Number of cycles rename is blocking
system.cpu.rename.CommittedMaps               5530087                       # Number of HB maps that are committed
system.cpu.rename.FullRegisterEvents               17                       # Number of times there has been no free registers
system.cpu.rename.IQFullEvents                  48681                       # Number of times rename has blocked due to IQ full
system.cpu.rename.IdleCycles                   400427                       # Number of cycles rename is idle
system.cpu.rename.LQFullEvents                  14278                       # Number of times rename has blocked due to LQ full
system.cpu.rename.ROBFullEvents                  4524                       # Number of times rename has blocked due to ROB full
system.cpu.rename.RenameLookups              13546305                       # Number of register rename lookups that rename has made
system.cpu.rename.RenamedInsts                5202005                       # Number of instructions processed by rename
system.cpu.rename.RenamedOperands             6980169                       # Number of destination operands rename has renamed
system.cpu.rename.RunCycles                   1334693                       # Number of cycles rename is running
system.cpu.rename.SQFullEvents                  77650                       # Number of times rename has blocked due to SQ full
system.cpu.rename.SquashCycles                  26423                       # Number of cycles rename is squashing
system.cpu.rename.UnblockCycles                177344                       # Number of cycles rename is unblocking
system.cpu.rename.UndoneMaps                  1450059                       # Number of HB maps that are undone due to squashing
system.cpu.rename.fp_rename_lookups            191768                       # Number of floating rename lookups
system.cpu.rename.int_rename_lookups          8204109                       # Number of integer rename lookups
system.cpu.rename.serializeStallCycles          19792                       # count of cycles rename stalled for serializing inst
system.cpu.rename.serializingInsts                880                       # count of serializing insts renamed
system.cpu.rename.skidInsts                    210391                       # count of insts added to the skid buffer
system.cpu.rename.tempSerializingInsts            934                       # count of temporary serializing insts renamed
system.cpu.rob.rob_reads                      6920642                       # The number of ROB reads
system.cpu.rob.rob_writes                    10353097                       # The number of ROB writes
system.cpu.timesIdled                            1614                       # Number of times that the entire CPU went into an idle state and unscheduled itself
system.l2bus.snoop_filter.hit_multi_requests           11                       # Number of requests hitting in the snoop filter with multiple (>1) holders of the requested data.
system.l2bus.snoop_filter.hit_multi_snoops            0                       # Number of snoops hitting in the snoop filter with multiple (>1) holders of the requested data.
system.l2bus.snoop_filter.hit_single_requests        18666                       # Number of requests hitting in the snoop filter with a single holder of the requested data.
system.l2bus.snoop_filter.hit_single_snoops          428                       # Number of snoops hitting in the snoop filter with a single holder of the requested data.
system.l2bus.snoop_filter.tot_requests          38610                       # Total number of requests made to the snoop filter.
system.l2bus.snoop_filter.tot_snoops              428                       # Total number of snoops made to the snoop filter.
system.l2cache.prefetcher.num_hwpf_issued          675                       # number of hwpf issued
system.l2cache.prefetcher.pfBufferHit               0                       # number of redundant prefetches already in prefetch queue
system.l2cache.prefetcher.pfIdentified            675                       # number of prefetch candidates identified
system.l2cache.prefetcher.pfInCache                 0                       # number of redundant prefetches already in cache/mshr dropped
system.l2cache.prefetcher.pfRemovedFull             0                       # number of prefetches dropped due to prefetch queue size
system.l2cache.prefetcher.pfSpanPage              105                       # number of prefetches that crossed the page
system.membus.snoop_filter.hit_multi_requests            0                       # Number of requests hitting in the snoop filter with multiple (>1) holders of the requested data.
system.membus.snoop_filter.hit_multi_snoops            0                       # Number of snoops hitting in the snoop filter with multiple (>1) holders of the requested data.
system.membus.snoop_filter.hit_single_requests         9516                       # Number of requests hitting in the snoop filter with a single holder of the requested data.
system.membus.snoop_filter.hit_single_snoops            0                       # Number of snoops hitting in the snoop filter with a single holder of the requested data.
system.membus.snoop_filter.tot_requests         23155                       # Total number of requests made to the snoop filter.
system.membus.snoop_filter.tot_snoops               0                       # Total number of snoops made to the snoop filter.
system.membus.pwrStateResidencyTicks::UNDEFINED   1186764800                       # Cumulative time (in ticks) in various power states
system.membus.trans_dist::ReadResp              12191                       # Transaction distribution
system.membus.trans_dist::WritebackDirty         1344                       # Transaction distribution
system.membus.trans_dist::CleanEvict             8172                       # Transaction distribution
system.membus.trans_dist::ReadExReq              1448                       # Transaction distribution
system.membus.trans_dist::ReadExResp             1448                       # Transaction distribution
system.membus.trans_dist::ReadSharedReq         12191                       # Transaction distribution
system.membus.pkt_count_system.l2cache.mem_side::system.mem_ctrl.port        36794                       # Packet count per connected master and slave (bytes)
system.membus.pkt_count_system.l2cache.mem_side::total        36794                       # Packet count per connected master and slave (bytes)
system.membus.pkt_count::total                  36794                       # Packet count per connected master and slave (bytes)
system.membus.pkt_size_system.l2cache.mem_side::system.mem_ctrl.port       958912                       # Cumulative packet size per connected master and slave (bytes)
system.membus.pkt_size_system.l2cache.mem_side::total       958912                       # Cumulative packet size per connected master and slave (bytes)
system.membus.pkt_size::total                  958912                       # Cumulative packet size per connected master and slave (bytes)
system.membus.snoops                                0                       # Total snoops (count)
system.membus.snoopTraffic                          0                       # Total snoop traffic (bytes)
system.membus.snoop_fanout::samples             13639                       # Request fanout histogram
system.membus.snoop_fanout::mean                    0                       # Request fanout histogram
system.membus.snoop_fanout::stdev                   0                       # Request fanout histogram
system.membus.snoop_fanout::underflows              0      0.00%      0.00% # Request fanout histogram
system.membus.snoop_fanout::0                   13639    100.00%    100.00% # Request fanout histogram
system.membus.snoop_fanout::1                       0      0.00%    100.00% # Request fanout histogram
system.membus.snoop_fanout::overflows               0      0.00%    100.00% # Request fanout histogram
system.membus.snoop_fanout::min_value               0                       # Request fanout histogram
system.membus.snoop_fanout::max_value               0                       # Request fanout histogram
system.membus.snoop_fanout::total               13639                       # Request fanout histogram
system.membus.reqLayer2.occupancy            11438919                       # Layer occupancy (ticks)
system.membus.reqLayer2.utilization               1.0                       # Layer utilization (%)
system.membus.respLayer0.occupancy           29563281                       # Layer occupancy (ticks)
system.membus.respLayer0.utilization              2.5                       # Layer utilization (%)
system.l2bus.pwrStateResidencyTicks::UNDEFINED   1186764800                       # Cumulative time (in ticks) in various power states
system.l2bus.trans_dist::ReadResp               17739                       # Transaction distribution
system.l2bus.trans_dist::WritebackDirty          4157                       # Transaction distribution
system.l2bus.trans_dist::CleanEvict             24102                       # Transaction distribution
system.l2bus.trans_dist::HardPFReq                963                       # Transaction distribution
system.l2bus.trans_dist::ReadExReq               2206                       # Transaction distribution
system.l2bus.trans_dist::ReadExResp              2206                       # Transaction distribution
system.l2bus.trans_dist::ReadSharedReq          17739                       # Transaction distribution
system.l2bus.pkt_count_system.cpu.icache.mem_side::system.l2cache.cpu_side         8369                       # Packet count per connected master and slave (bytes)
system.l2bus.pkt_count_system.cpu.dcache.mem_side::system.l2cache.cpu_side        50183                       # Packet count per connected master and slave (bytes)
system.l2bus.pkt_count::total                   58552                       # Packet count per connected master and slave (bytes)
system.l2bus.pkt_size_system.cpu.icache.mem_side::system.l2cache.cpu_side       183872                       # Cumulative packet size per connected master and slave (bytes)
system.l2bus.pkt_size_system.cpu.dcache.mem_side::system.l2cache.cpu_side      1272448                       # Cumulative packet size per connected master and slave (bytes)
system.l2bus.pkt_size::total                  1456320                       # Cumulative packet size per connected master and slave (bytes)
system.l2bus.snoops                             10560                       # Total snoops (count)
system.l2bus.snoopTraffic                       86208                       # Total snoop traffic (bytes)
system.l2bus.snoop_fanout::samples              30502                       # Request fanout histogram
system.l2bus.snoop_fanout::mean              0.014425                       # Request fanout histogram
system.l2bus.snoop_fanout::stdev             0.119238                       # Request fanout histogram
system.l2bus.snoop_fanout::underflows               0      0.00%      0.00% # Request fanout histogram
system.l2bus.snoop_fanout::0                    30062     98.56%     98.56% # Request fanout histogram
system.l2bus.snoop_fanout::1                      440      1.44%    100.00% # Request fanout histogram
system.l2bus.snoop_fanout::2                        0      0.00%    100.00% # Request fanout histogram
system.l2bus.snoop_fanout::overflows                0      0.00%    100.00% # Request fanout histogram
system.l2bus.snoop_fanout::min_value                0                       # Request fanout histogram
system.l2bus.snoop_fanout::max_value                1                       # Request fanout histogram
system.l2bus.snoop_fanout::total                30502                       # Request fanout histogram
system.l2bus.respLayer1.occupancy            20483997                       # Layer occupancy (ticks)
system.l2bus.respLayer1.utilization               1.7                       # Layer utilization (%)
system.l2bus.reqLayer0.occupancy             19123903                       # Layer occupancy (ticks)
system.l2bus.reqLayer0.utilization                1.6                       # Layer utilization (%)
system.l2bus.respLayer0.occupancy             3451998                       # Layer occupancy (ticks)
system.l2bus.respLayer0.utilization               0.3                       # Layer utilization (%)
system.clk_domain.clock                           400                       # Clock period in ticks
system.clk_domain.voltage_domain.voltage            1                       # Voltage in Volts
system.cpu.pwrStateResidencyTicks::ON      1186764800                       # Cumulative time (in ticks) in various power states
system.cpu.icache.pwrStateResidencyTicks::UNDEFINED   1186764800                       # Cumulative time (in ticks) in various power states
system.cpu.icache.demand_hits::.cpu.inst       287842                       # number of demand (read+write) hits
system.cpu.icache.demand_hits::total           287842                       # number of demand (read+write) hits
system.cpu.icache.overall_hits::.cpu.inst       287842                       # number of overall hits
system.cpu.icache.overall_hits::total          287842                       # number of overall hits
system.cpu.icache.demand_misses::.cpu.inst         3604                       # number of demand (read+write) misses
system.cpu.icache.demand_misses::total           3604                       # number of demand (read+write) misses
system.cpu.icache.overall_misses::.cpu.inst         3604                       # number of overall misses
system.cpu.icache.overall_misses::total          3604                       # number of overall misses
system.cpu.icache.demand_miss_latency::.cpu.inst    177843200                       # number of demand (read+write) miss cycles
system.cpu.icache.demand_miss_latency::total    177843200                       # number of demand (read+write) miss cycles
system.cpu.icache.overall_miss_latency::.cpu.inst    177843200                       # number of overall miss cycles
system.cpu.icache.overall_miss_latency::total    177843200                       # number of overall miss cycles
system.cpu.icache.demand_accesses::.cpu.inst       291446                       # number of demand (read+write) accesses
system.cpu.icache.demand_accesses::total       291446                       # number of demand (read+write) accesses
system.cpu.icache.overall_accesses::.cpu.inst       291446                       # number of overall (read+write) accesses
system.cpu.icache.overall_accesses::total       291446                       # number of overall (read+write) accesses
system.cpu.icache.demand_miss_rate::.cpu.inst     0.012366                       # miss rate for demand accesses
system.cpu.icache.demand_miss_rate::total     0.012366                       # miss rate for demand accesses
system.cpu.icache.overall_miss_rate::.cpu.inst     0.012366                       # miss rate for overall accesses
system.cpu.icache.overall_miss_rate::total     0.012366                       # miss rate for overall accesses
system.cpu.icache.demand_avg_miss_latency::.cpu.inst 49346.059933                       # average overall miss latency
system.cpu.icache.demand_avg_miss_latency::total 49346.059933                       # average overall miss latency
system.cpu.icache.overall_avg_miss_latency::.cpu.inst 49346.059933                       # average overall miss latency
system.cpu.icache.overall_avg_miss_latency::total 49346.059933                       # average overall miss latency
system.cpu.icache.blocked_cycles::no_mshrs          226                       # number of cycles access was blocked
system.cpu.icache.blocked_cycles::no_targets            0                       # number of cycles access was blocked
system.cpu.icache.blocked::no_mshrs                 5                       # number of cycles access was blocked
system.cpu.icache.blocked::no_targets               0                       # number of cycles access was blocked
system.cpu.icache.avg_blocked_cycles::no_mshrs    45.200000                       # average number of cycles each access was blocked
system.cpu.icache.avg_blocked_cycles::no_targets          nan                       # average number of cycles each access was blocked
system.cpu.icache.demand_mshr_hits::.cpu.inst          728                       # number of demand (read+write) MSHR hits
system.cpu.icache.demand_mshr_hits::total          728                       # number of demand (read+write) MSHR hits
system.cpu.icache.overall_mshr_hits::.cpu.inst          728                       # number of overall MSHR hits
system.cpu.icache.overall_mshr_hits::total          728                       # number of overall MSHR hits
system.cpu.icache.demand_mshr_misses::.cpu.inst         2876                       # number of demand (read+write) MSHR misses
system.cpu.icache.demand_mshr_misses::total         2876                       # number of demand (read+write) MSHR misses
system.cpu.icache.overall_mshr_misses::.cpu.inst         2876                       # number of overall MSHR misses
system.cpu.icache.overall_mshr_misses::total         2876                       # number of overall MSHR misses
system.cpu.icache.demand_mshr_miss_latency::.cpu.inst    143373200                       # number of demand (read+write) MSHR miss cycles
system.cpu.icache.demand_mshr_miss_latency::total    143373200                       # number of demand (read+write) MSHR miss cycles
system.cpu.icache.overall_mshr_miss_latency::.cpu.inst    143373200                       # number of overall MSHR miss cycles
system.cpu.icache.overall_mshr_miss_latency::total    143373200                       # number of overall MSHR miss cycles
system.cpu.icache.demand_mshr_miss_rate::.cpu.inst     0.009868                       # mshr miss rate for demand accesses
system.cpu.icache.demand_mshr_miss_rate::total     0.009868                       # mshr miss rate for demand accesses
system.cpu.icache.overall_mshr_miss_rate::.cpu.inst     0.009868                       # mshr miss rate for overall accesses
system.cpu.icache.overall_mshr_miss_rate::total     0.009868                       # mshr miss rate for overall accesses
system.cpu.icache.demand_avg_mshr_miss_latency::.cpu.inst 49851.599444                       # average overall mshr miss latency
system.cpu.icache.demand_avg_mshr_miss_latency::total 49851.599444                       # average overall mshr miss latency
system.cpu.icache.overall_avg_mshr_miss_latency::.cpu.inst 49851.599444                       # average overall mshr miss latency
system.cpu.icache.overall_avg_mshr_miss_latency::total 49851.599444                       # average overall mshr miss latency
system.cpu.icache.replacements                   2620                       # number of replacements
system.cpu.icache.ReadReq_hits::.cpu.inst       287842                       # number of ReadReq hits
system.cpu.icache.ReadReq_hits::total          287842                       # number of ReadReq hits
system.cpu.icache.ReadReq_misses::.cpu.inst         3604                       # number of ReadReq misses
system.cpu.icache.ReadReq_misses::total          3604                       # number of ReadReq misses
system.cpu.icache.ReadReq_miss_latency::.cpu.inst    177843200                       # number of ReadReq miss cycles
system.cpu.icache.ReadReq_miss_latency::total    177843200                       # number of ReadReq miss cycles
system.cpu.icache.ReadReq_accesses::.cpu.inst       291446                       # number of ReadReq accesses(hits+misses)
system.cpu.icache.ReadReq_accesses::total       291446                       # number of ReadReq accesses(hits+misses)
system.cpu.icache.ReadReq_miss_rate::.cpu.inst     0.012366                       # miss rate for ReadReq accesses
system.cpu.icache.ReadReq_miss_rate::total     0.012366                       # miss rate for ReadReq accesses
system.cpu.icache.ReadReq_avg_miss_latency::.cpu.inst 49346.059933                       # average ReadReq miss latency
system.cpu.icache.ReadReq_avg_miss_latency::total 49346.059933                       # average ReadReq miss latency
system.cpu.icache.ReadReq_mshr_hits::.cpu.inst          728                       # number of ReadReq MSHR hits
system.cpu.icache.ReadReq_mshr_hits::total          728                       # number of ReadReq MSHR hits
system.cpu.icache.ReadReq_mshr_misses::.cpu.inst         2876                       # number of ReadReq MSHR misses
system.cpu.icache.ReadReq_mshr_misses::total         2876                       # number of ReadReq MSHR misses
system.cpu.icache.ReadReq_mshr_miss_latency::.cpu.inst    143373200                       # number of ReadReq MSHR miss cycles
system.cpu.icache.ReadReq_mshr_miss_latency::total    143373200                       # number of ReadReq MSHR miss cycles
system.cpu.icache.ReadReq_mshr_miss_rate::.cpu.inst     0.009868                       # mshr miss rate for ReadReq accesses
system.cpu.icache.ReadReq_mshr_miss_rate::total     0.009868                       # mshr miss rate for ReadReq accesses
system.cpu.icache.ReadReq_avg_mshr_miss_latency::.cpu.inst 49851.599444                       # average ReadReq mshr miss latency
system.cpu.icache.ReadReq_avg_mshr_miss_latency::total 49851.599444                       # average ReadReq mshr miss latency
system.cpu.icache.prefetcher.pwrStateResidencyTicks::UNDEFINED   1186764800                       # Cumulative time (in ticks) in various power states
system.cpu.icache.tags.pwrStateResidencyTicks::UNDEFINED   1186764800                       # Cumulative time (in ticks) in various power states
system.cpu.icache.tags.tagsinuse           253.699633                       # Cycle average of tags in use
system.cpu.icache.tags.total_refs              251504                       # Total number of references to valid blocks.
system.cpu.icache.tags.sampled_refs              2620                       # Sample count of references to valid blocks.
system.cpu.icache.tags.avg_refs             95.993893                       # Average number of references to valid blocks.
system.cpu.icache.tags.warmup_cycle             66400                       # Cycle when the warmup percentage was hit.
system.cpu.icache.tags.occ_blocks::.cpu.inst   253.699633                       # Average occupied blocks per requestor
system.cpu.icache.tags.occ_percent::.cpu.inst     0.991014                       # Average percentage of cache occupancy
system.cpu.icache.tags.occ_percent::total     0.991014                       # Average percentage of cache occupancy
system.cpu.icache.tags.occ_task_id_blocks::1024          256                       # Occupied blocks per task id
system.cpu.icache.tags.age_task_id_blocks_1024::0           91                       # Occupied blocks per task id
system.cpu.icache.tags.age_task_id_blocks_1024::2          162                       # Occupied blocks per task id
system.cpu.icache.tags.age_task_id_blocks_1024::3            3                       # Occupied blocks per task id
system.cpu.icache.tags.occ_task_id_percent::1024            1                       # Percentage of cache occupancy per task id
system.cpu.icache.tags.tag_accesses            585768                       # Number of tag accesses
system.cpu.icache.tags.data_accesses           585768                       # Number of data accesses
system.cpu.dtb.walker.pwrStateResidencyTicks::UNDEFINED   1186764800                       # Cumulative time (in ticks) in various power states
system.cpu.interrupts.clk_domain.clock           6400                       # Clock period in ticks
system.cpu.itb.walker.pwrStateResidencyTicks::UNDEFINED   1186764800                       # Cumulative time (in ticks) in various power states
system.cpu.dcache.pwrStateResidencyTicks::UNDEFINED   1186764800                       # Cumulative time (in ticks) in various power states
system.cpu.dcache.demand_hits::.cpu.data       773864                       # number of demand (read+write) hits
system.cpu.dcache.demand_hits::total           773864                       # number of demand (read+write) hits
system.cpu.dcache.overall_hits::.cpu.data       773864                       # number of overall hits
system.cpu.dcache.overall_hits::total          773864                       # number of overall hits
system.cpu.dcache.demand_misses::.cpu.data        35353                       # number of demand (read+write) misses
system.cpu.dcache.demand_misses::total          35353                       # number of demand (read+write) misses
system.cpu.dcache.overall_misses::.cpu.data        35353                       # number of overall misses
system.cpu.dcache.overall_misses::total         35353                       # number of overall misses
system.cpu.dcache.demand_miss_latency::.cpu.data   1715667599                       # number of demand (read+write) miss cycles
system.cpu.dcache.demand_miss_latency::total   1715667599                       # number of demand (read+write) miss cycles
system.cpu.dcache.overall_miss_latency::.cpu.data   1715667599                       # number of overall miss cycles
system.cpu.dcache.overall_miss_latency::total   1715667599                       # number of overall miss cycles
system.cpu.dcache.demand_accesses::.cpu.data       809217                       # number of demand (read+write) accesses
system.cpu.dcache.demand_accesses::total       809217                       # number of demand (read+write) accesses
system.cpu.dcache.overall_accesses::.cpu.data       809217                       # number of overall (read+write) accesses
system.cpu.dcache.overall_accesses::total       809217                       # number of overall (read+write) accesses
system.cpu.dcache.demand_miss_rate::.cpu.data     0.043688                       # miss rate for demand accesses
system.cpu.dcache.demand_miss_rate::total     0.043688                       # miss rate for demand accesses
system.cpu.dcache.overall_miss_rate::.cpu.data     0.043688                       # miss rate for overall accesses
system.cpu.dcache.overall_miss_rate::total     0.043688                       # miss rate for overall accesses
system.cpu.dcache.demand_avg_miss_latency::.cpu.data 48529.618392                       # average overall miss latency
system.cpu.dcache.demand_avg_miss_latency::total 48529.618392                       # average overall miss latency
system.cpu.dcache.overall_avg_miss_latency::.cpu.data 48529.618392                       # average overall miss latency
system.cpu.dcache.overall_avg_miss_latency::total 48529.618392                       # average overall miss latency
system.cpu.dcache.blocked_cycles::no_mshrs        29478                       # number of cycles access was blocked
system.cpu.dcache.blocked_cycles::no_targets          138                       # number of cycles access was blocked
system.cpu.dcache.blocked::no_mshrs               801                       # number of cycles access was blocked
system.cpu.dcache.blocked::no_targets               1                       # number of cycles access was blocked
system.cpu.dcache.avg_blocked_cycles::no_mshrs    36.801498                       # average number of cycles each access was blocked
system.cpu.dcache.avg_blocked_cycles::no_targets          138                       # average number of cycles each access was blocked
system.cpu.dcache.unused_prefetches              1833                       # number of HardPF blocks evicted w/o reference
system.cpu.dcache.writebacks::.writebacks         2813                       # number of writebacks
system.cpu.dcache.writebacks::total              2813                       # number of writebacks
system.cpu.dcache.demand_mshr_hits::.cpu.data        22647                       # number of demand (read+write) MSHR hits
system.cpu.dcache.demand_mshr_hits::total        22647                       # number of demand (read+write) MSHR hits
system.cpu.dcache.overall_mshr_hits::.cpu.data        22647                       # number of overall MSHR hits
system.cpu.dcache.overall_mshr_hits::total        22647                       # number of overall MSHR hits
system.cpu.dcache.demand_mshr_misses::.cpu.data        12706                       # number of demand (read+write) MSHR misses
system.cpu.dcache.demand_mshr_misses::total        12706                       # number of demand (read+write) MSHR misses
system.cpu.dcache.overall_mshr_misses::.cpu.data        12706                       # number of overall MSHR misses
system.cpu.dcache.overall_mshr_misses::.cpu.dcache.prefetcher         4363                       # number of overall MSHR misses
system.cpu.dcache.overall_mshr_misses::total        17069                       # number of overall MSHR misses
system.cpu.dcache.demand_mshr_miss_latency::.cpu.data    587735599                       # number of demand (read+write) MSHR miss cycles
system.cpu.dcache.demand_mshr_miss_latency::total    587735599                       # number of demand (read+write) MSHR miss cycles
system.cpu.dcache.overall_mshr_miss_latency::.cpu.data    587735599                       # number of overall MSHR miss cycles
system.cpu.dcache.overall_mshr_miss_latency::.cpu.dcache.prefetcher    247314583                       # number of overall MSHR miss cycles
system.cpu.dcache.overall_mshr_miss_latency::total    835050182                       # number of overall MSHR miss cycles
system.cpu.dcache.demand_mshr_miss_rate::.cpu.data     0.015702                       # mshr miss rate for demand accesses
system.cpu.dcache.demand_mshr_miss_rate::total     0.015702                       # mshr miss rate for demand accesses
system.cpu.dcache.overall_mshr_miss_rate::.cpu.data     0.015702                       # mshr miss rate for overall accesses
system.cpu.dcache.overall_mshr_miss_rate::.cpu.dcache.prefetcher          inf                       # mshr miss rate for overall accesses
system.cpu.dcache.overall_mshr_miss_rate::total     0.021093                       # mshr miss rate for overall accesses
system.cpu.dcache.demand_avg_mshr_miss_latency::.cpu.data 46256.540139                       # average overall mshr miss latency
system.cpu.dcache.demand_avg_mshr_miss_latency::total 46256.540139                       # average overall mshr miss latency
system.cpu.dcache.overall_avg_mshr_miss_latency::.cpu.data 46256.540139                       # average overall mshr miss latency
system.cpu.dcache.overall_avg_mshr_miss_latency::.cpu.dcache.prefetcher 56684.525097                       # average overall mshr miss latency
system.cpu.dcache.overall_avg_mshr_miss_latency::total 48922.033042                       # average overall mshr miss latency
system.cpu.dcache.replacements                  16045                       # number of replacements
system.cpu.dcache.ReadReq_hits::.cpu.data       562846                       # number of ReadReq hits
system.cpu.dcache.ReadReq_hits::total          562846                       # number of ReadReq hits
system.cpu.dcache.ReadReq_misses::.cpu.data        33114                       # number of ReadReq misses
system.cpu.dcache.ReadReq_misses::total         33114                       # number of ReadReq misses
system.cpu.dcache.ReadReq_miss_latency::.cpu.data   1603072000                       # number of ReadReq miss cycles
system.cpu.dcache.ReadReq_miss_latency::total   1603072000                       # number of ReadReq miss cycles
system.cpu.dcache.ReadReq_accesses::.cpu.data       595960                       # number of ReadReq accesses(hits+misses)
system.cpu.dcache.ReadReq_accesses::total       595960                       # number of ReadReq accesses(hits+misses)
system.cpu.dcache.ReadReq_miss_rate::.cpu.data     0.055564                       # miss rate for ReadReq accesses
system.cpu.dcache.ReadReq_miss_rate::total     0.055564                       # miss rate for ReadReq accesses
system.cpu.dcache.ReadReq_avg_miss_latency::.cpu.data 48410.702422                       # average ReadReq miss latency
system.cpu.dcache.ReadReq_avg_miss_latency::total 48410.702422                       # average ReadReq miss latency
system.cpu.dcache.ReadReq_mshr_hits::.cpu.data        22613                       # number of ReadReq MSHR hits
system.cpu.dcache.ReadReq_mshr_hits::total        22613                       # number of ReadReq MSHR hits
system.cpu.dcache.ReadReq_mshr_misses::.cpu.data        10501                       # number of ReadReq MSHR misses
system.cpu.dcache.ReadReq_mshr_misses::total        10501                       # number of ReadReq MSHR misses
system.cpu.dcache.ReadReq_mshr_miss_latency::.cpu.data    478359600                       # number of ReadReq MSHR miss cycles
system.cpu.dcache.ReadReq_mshr_miss_latency::total    478359600                       # number of ReadReq MSHR miss cycles
system.cpu.dcache.ReadReq_mshr_miss_rate::.cpu.data     0.017620                       # mshr miss rate for ReadReq accesses
system.cpu.dcache.ReadReq_mshr_miss_rate::total     0.017620                       # mshr miss rate for ReadReq accesses
system.cpu.dcache.ReadReq_avg_mshr_miss_latency::.cpu.data 45553.718693                       # average ReadReq mshr miss latency
system.cpu.dcache.ReadReq_avg_mshr_miss_latency::total 45553.718693                       # average ReadReq mshr miss latency
system.cpu.dcache.WriteReq_hits::.cpu.data       211018                       # number of WriteReq hits
system.cpu.dcache.WriteReq_hits::total         211018                       # number of WriteReq hits
system.cpu.dcache.WriteReq_misses::.cpu.data         2239                       # number of WriteReq misses
system.cpu.dcache.WriteReq_misses::total         2239                       # number of WriteReq misses
system.cpu.dcache.WriteReq_miss_latency::.cpu.data    112595599                       # number of WriteReq miss cycles
system.cpu.dcache.WriteReq_miss_latency::total    112595599                       # number of WriteReq miss cycles
system.cpu.dcache.WriteReq_accesses::.cpu.data       213257                       # number of WriteReq accesses(hits+misses)
system.cpu.dcache.WriteReq_accesses::total       213257                       # number of WriteReq accesses(hits+misses)
system.cpu.dcache.WriteReq_miss_rate::.cpu.data     0.010499                       # miss rate for WriteReq accesses
system.cpu.dcache.WriteReq_miss_rate::total     0.010499                       # miss rate for WriteReq accesses
system.cpu.dcache.WriteReq_avg_miss_latency::.cpu.data 50288.342564                       # average WriteReq miss latency
system.cpu.dcache.WriteReq_avg_miss_latency::total 50288.342564                       # average WriteReq miss latency
system.cpu.dcache.WriteReq_mshr_hits::.cpu.data           34                       # number of WriteReq MSHR hits
system.cpu.dcache.WriteReq_mshr_hits::total           34                       # number of WriteReq MSHR hits
system.cpu.dcache.WriteReq_mshr_misses::.cpu.data         2205                       # number of WriteReq MSHR misses
system.cpu.dcache.WriteReq_mshr_misses::total         2205                       # number of WriteReq MSHR misses
system.cpu.dcache.WriteReq_mshr_miss_latency::.cpu.data    109375999                       # number of WriteReq MSHR miss cycles
system.cpu.dcache.WriteReq_mshr_miss_latency::total    109375999                       # number of WriteReq MSHR miss cycles
[...]
system.l2cache.demand_mshr_misses::.cpu.data          170                       # number of demand (read+write) MSHR misses
system.l2cache.demand_mshr_misses::.cpu.dcache.prefetcher           34                       # number of demand (read+write) MSHR misses
system.l2cache.demand_mshr_misses::total          466                       # number of demand (read+write) MSHR misses
system.l2cache.overall_mshr_misses::.cpu.inst          262                       # number of overall MSHR misses
system.l2cache.overall_mshr_misses::.cpu.data          170                       # number of overall MSHR misses
system.l2cache.overall_mshr_misses::.cpu.dcache.prefetcher           34                       # number of overall MSHR misses
system.l2cache.overall_mshr_misses::total          466                       # number of overall MSHR misses
system.l2cache.demand_mshr_miss_latency::.cpu.inst     15224800                       # number of demand (read+write) MSHR miss cycles
system.l2cache.demand_mshr_miss_latency::.cpu.data     10250400                       # number of demand (read+write) MSHR miss cycles
system.l2cache.demand_mshr_miss_latency::.cpu.dcache.prefetcher      2057969                       # number of demand (read+write) MSHR miss cycles
system.l2cache.demand_mshr_miss_latency::total     27533169                       # number of demand (read+write) MSHR miss cycles
system.l2cache.overall_mshr_miss_latency::.cpu.inst     15224800                       # number of overall MSHR miss cycles
system.l2cache.overall_mshr_miss_latency::.cpu.data     10250400                       # number of overall MSHR miss cycles
system.l2cache.overall_mshr_miss_latency::.cpu.dcache.prefetcher      2057969                       # number of overall MSHR miss cycles
system.l2cache.overall_mshr_miss_latency::total     27533169                       # number of overall MSHR miss cycles
system.l2cache.demand_mshr_miss_rate::.cpu.inst     0.487896                       # mshr miss rate for demand accesses
system.l2cache.demand_mshr_miss_rate::.cpu.data     0.494186                       # mshr miss rate for demand accesses
system.l2cache.demand_mshr_miss_rate::.cpu.dcache.prefetcher     0.850000                       # mshr miss rate for demand accesses
system.l2cache.demand_mshr_miss_rate::total     0.505972                       # mshr miss rate for demand accesses
system.l2cache.overall_mshr_miss_rate::.cpu.inst     0.487896                       # mshr miss rate for overall accesses
system.l2cache.overall_mshr_miss_rate::.cpu.data     0.494186                       # mshr miss rate for overall accesses
system.l2cache.overall_mshr_miss_rate::.cpu.dcache.prefetcher     0.850000                       # mshr miss rate for overall accesses
system.l2cache.overall_mshr_miss_rate::total     0.505972                       # mshr miss rate for overall accesses
system.l2cache.demand_avg_mshr_miss_latency::.cpu.inst 58109.923664                       # average overall mshr miss latency
system.l2cache.demand_avg_mshr_miss_latency::.cpu.data 60296.470588                       # average overall mshr miss latency
system.l2cache.demand_avg_mshr_miss_latency::.cpu.dcache.prefetcher 60528.500000                       # average overall mshr miss latency
system.l2cache.demand_avg_mshr_miss_latency::total 59084.053648                       # average overall mshr miss latency
system.l2cache.overall_avg_mshr_miss_latency::.cpu.inst 58109.923664                       # average overall mshr miss latency
system.l2cache.overall_avg_mshr_miss_latency::.cpu.data 60296.470588                       # average overall mshr miss latency
system.l2cache.overall_avg_mshr_miss_latency::.cpu.dcache.prefetcher 60528.500000                       # average overall mshr miss latency
system.l2cache.overall_avg_mshr_miss_latency::total 59084.053648                       # average overall mshr miss latency
system.l2cache.replacements                       475                       # number of replacements
system.l2cache.WritebackDirty_hits::.writebacks          154                       # number of WritebackDirty hits
system.l2cache.WritebackDirty_hits::total          154                       # number of WritebackDirty hits
system.l2cache.WritebackDirty_accesses::.writebacks          154                       # number of WritebackDirty accesses(hits+misses)
system.l2cache.WritebackDirty_accesses::total          154                       # number of WritebackDirty accesses(hits+misses)
system.l2cache.CleanEvict_mshr_misses::.writebacks           12                       # number of CleanEvict MSHR misses
system.l2cache.CleanEvict_mshr_misses::total           12                       # number of CleanEvict MSHR misses
system.l2cache.CleanEvict_mshr_miss_rate::.writebacks          inf                       # mshr miss rate for CleanEvict accesses
system.l2cache.CleanEvict_mshr_miss_rate::total          inf                       # mshr miss rate for CleanEvict accesses
system.l2cache.ReadExReq_hits::.cpu.data           47                       # number of ReadExReq hits
system.l2cache.ReadExReq_hits::total               47                       # number of ReadExReq hits
system.l2cache.ReadExReq_misses::.cpu.data           48                       # number of ReadExReq misses
system.l2cache.ReadExReq_misses::total             48                       # number of ReadExReq misses
system.l2cache.ReadExReq_miss_latency::.cpu.data      3323200                       # number of ReadExReq miss cycles
system.l2cache.ReadExReq_miss_latency::total      3323200                       # number of ReadExReq miss cycles
system.l2cache.ReadExReq_accesses::.cpu.data           95                       # number of ReadExReq accesses(hits+misses)
system.l2cache.ReadExReq_accesses::total           95                       # number of ReadExReq accesses(hits+misses)
system.l2cache.ReadExReq_miss_rate::.cpu.data     0.505263                       # miss rate for ReadExReq accesses
system.l2cache.ReadExReq_miss_rate::total     0.505263                       # miss rate for ReadExReq accesses
system.l2cache.ReadExReq_avg_miss_latency::.cpu.data 69233.333333                       # average ReadExReq miss latency
system.l2cache.ReadExReq_avg_miss_latency::total 69233.333333                       # average ReadExReq miss latency
system.l2cache.ReadExReq_mshr_misses::.cpu.data           48                       # number of ReadExReq MSHR misses
system.l2cache.ReadExReq_mshr_misses::total           48                       # number of ReadExReq MSHR misses
system.l2cache.ReadExReq_mshr_miss_latency::.cpu.data      2939200                       # number of ReadExReq MSHR miss cycles
system.l2cache.ReadExReq_mshr_miss_latency::total      2939200                       # number of ReadExReq MSHR miss cycles
system.l2cache.ReadExReq_mshr_miss_rate::.cpu.data     0.505263                       # mshr miss rate for ReadExReq accesses
system.l2cache.ReadExReq_mshr_miss_rate::total     0.505263                       # mshr miss rate for ReadExReq accesses
system.l2cache.ReadExReq_avg_mshr_miss_latency::.cpu.data 61233.333333                       # average ReadExReq mshr miss latency
system.l2cache.ReadExReq_avg_mshr_miss_latency::total 61233.333333                       # average ReadExReq mshr miss latency
system.l2cache.ReadSharedReq_hits::.cpu.inst          275                       # number of ReadSharedReq hits
system.l2cache.ReadSharedReq_hits::.cpu.data          127                       # number of ReadSharedReq hits
system.l2cache.ReadSharedReq_hits::.cpu.dcache.prefetcher            6                       # number of ReadSharedReq hits
system.l2cache.ReadSharedReq_hits::total          408                       # number of ReadSharedReq hits
system.l2cache.ReadSharedReq_misses::.cpu.inst          262                       # number of ReadSharedReq misses
system.l2cache.ReadSharedReq_misses::.cpu.data          122                       # number of ReadSharedReq misses
system.l2cache.ReadSharedReq_misses::.cpu.dcache.prefetcher           34                       # number of ReadSharedReq misses
system.l2cache.ReadSharedReq_misses::total          418                       # number of ReadSharedReq misses
system.l2cache.ReadSharedReq_miss_latency::.cpu.inst     17320800                       # number of ReadSharedReq miss cycles
system.l2cache.ReadSharedReq_miss_latency::.cpu.data      8287200                       # number of ReadSharedReq miss cycles
system.l2cache.ReadSharedReq_miss_latency::.cpu.dcache.prefetcher      2329969                       # number of ReadSharedReq miss cycles
system.l2cache.ReadSharedReq_miss_latency::total     27937969                       # number of ReadSharedReq miss cycles
system.l2cache.ReadSharedReq_accesses::.cpu.inst          537                       # number of ReadSharedReq accesses(hits+misses)
system.l2cache.ReadSharedReq_accesses::.cpu.data          249                       # number of ReadSharedReq accesses(hits+misses)
system.l2cache.ReadSharedReq_accesses::.cpu.dcache.prefetcher           40                       # number of ReadSharedReq accesses(hits+misses)
system.l2cache.ReadSharedReq_accesses::total          826                       # number of ReadSharedReq accesses(hits+misses)
system.l2cache.ReadSharedReq_miss_rate::.cpu.inst     0.487896                       # miss rate for ReadSharedReq accesses
system.l2cache.ReadSharedReq_miss_rate::.cpu.data     0.489960                       # miss rate for ReadSharedReq accesses
system.l2cache.ReadSharedReq_miss_rate::.cpu.dcache.prefetcher     0.850000                       # miss rate for ReadSharedReq accesses
system.l2cache.ReadSharedReq_miss_rate::total     0.506053                       # miss rate for ReadSharedReq accesses
system.l2cache.ReadSharedReq_avg_miss_latency::.cpu.inst 66109.923664                       # average ReadSharedReq miss latency
system.l2cache.ReadSharedReq_avg_miss_latency::.cpu.data 67927.868852                       # average ReadSharedReq miss latency
system.l2cache.ReadSharedReq_avg_miss_latency::.cpu.dcache.prefetcher 68528.500000                       # average ReadSharedReq miss latency
system.l2cache.ReadSharedReq_avg_miss_latency::total 66837.246411                       # average ReadSharedReq miss latency
system.l2cache.ReadSharedReq_mshr_misses::.cpu.inst          262                       # number of ReadSharedReq MSHR misses
system.l2cache.ReadSharedReq_mshr_misses::.cpu.data          122                       # number of ReadSharedReq MSHR misses
system.l2cache.ReadSharedReq_mshr_misses::.cpu.dcache.prefetcher           34                       # number of ReadSharedReq MSHR misses
system.l2cache.ReadSharedReq_mshr_misses::total          418                       # number of ReadSharedReq MSHR misses
system.l2cache.ReadSharedReq_mshr_miss_latency::.cpu.inst     15224800                       # number of ReadSharedReq MSHR miss cycles
system.l2cache.ReadSharedReq_mshr_miss_latency::.cpu.data      7311200                       # number of ReadSharedReq MSHR miss cycles
system.l2cache.ReadSharedReq_mshr_miss_latency::.cpu.dcache.prefetcher      2057969                       # number of ReadSharedReq MSHR miss cycles
system.l2cache.ReadSharedReq_mshr_miss_latency::total     24593969                       # number of ReadSharedReq MSHR miss cycles
system.l2cache.ReadSharedReq_mshr_miss_rate::.cpu.inst     0.487896                       # mshr miss rate for ReadSharedReq accesses
system.l2cache.ReadSharedReq_mshr_miss_rate::.cpu.data     0.489960                       # mshr miss rate for ReadSharedReq accesses
system.l2cache.ReadSharedReq_mshr_miss_rate::.cpu.dcache.prefetcher     0.850000                       # mshr miss rate for ReadSharedReq accesses
system.l2cache.ReadSharedReq_mshr_miss_rate::total     0.506053                       # mshr miss rate for ReadSharedReq accesses
system.l2cache.ReadSharedReq_avg_mshr_miss_latency::.cpu.inst 58109.923664                       # average ReadSharedReq mshr miss latency
system.l2cache.ReadSharedReq_avg_mshr_miss_latency::.cpu.data 59927.868852                       # average ReadSharedReq mshr miss latency
system.l2cache.ReadSharedReq_avg_mshr_miss_latency::.cpu.dcache.prefetcher 60528.500000                       # average ReadSharedReq mshr miss latency
system.l2cache.ReadSharedReq_avg_mshr_miss_latency::total 58837.246411                       # average ReadSharedReq mshr miss latency
system.l2cache.prefetcher.pwrStateResidencyTicks::UNDEFINED    121843200                       # Cumulative time (in ticks) in various power states
system.l2cache.tags.pwrStateResidencyTicks::UNDEFINED    121843200                       # Cumulative time (in ticks) in various power states
system.l2cache.tags.tagsinuse                    4096                       # Cycle average of tags in use
system.l2cache.tags.total_refs                  14134                       # Total number of references to valid blocks.
system.l2cache.tags.sampled_refs                 4571                       # Sample count of references to valid blocks.
system.l2cache.tags.avg_refs                 3.092102                       # Average number of references to valid blocks.
system.l2cache.tags.warmup_cycle                    0                       # Cycle when the warmup percentage was hit.
system.l2cache.tags.occ_blocks::.writebacks    39.757813                       # Average occupied blocks per requestor
system.l2cache.tags.occ_blocks::.cpu.inst  1101.433424                       # Average occupied blocks per requestor
system.l2cache.tags.occ_blocks::.cpu.data  1933.503033                       # Average occupied blocks per requestor
system.l2cache.tags.occ_blocks::.cpu.dcache.prefetcher   882.377018                       # Average occupied blocks per requestor
system.l2cache.tags.occ_blocks::.l2cache.prefetcher   138.928712                       # Average occupied blocks per requestor
system.l2cache.tags.occ_percent::.writebacks     0.009706                       # Average percentage of cache occupancy
system.l2cache.tags.occ_percent::.cpu.inst     0.268905                       # Average percentage of cache occupancy
system.l2cache.tags.occ_percent::.cpu.data     0.472047                       # Average percentage of cache occupancy
system.l2cache.tags.occ_percent::.cpu.dcache.prefetcher     0.215424                       # Average percentage of cache occupancy
system.l2cache.tags.occ_percent::.l2cache.prefetcher     0.033918                       # Average percentage of cache occupancy
system.l2cache.tags.occ_percent::total              1                       # Average percentage of cache occupancy
system.l2cache.tags.occ_task_id_blocks::1022          930                       # Occupied blocks per task id
system.l2cache.tags.occ_task_id_blocks::1024         3166                       # Occupied blocks per task id
system.l2cache.tags.age_task_id_blocks_1022::0            5                       # Occupied blocks per task id
system.l2cache.tags.age_task_id_blocks_1022::1            1                       # Occupied blocks per task id
system.l2cache.tags.age_task_id_blocks_1022::2          877                       # Occupied blocks per task id
system.l2cache.tags.age_task_id_blocks_1022::3           47                       # Occupied blocks per task id
system.l2cache.tags.age_task_id_blocks_1024::0          168                       # Occupied blocks per task id
system.l2cache.tags.age_task_id_blocks_1024::1          134                       # Occupied blocks per task id
system.l2cache.tags.age_task_id_blocks_1024::2         2674                       # Occupied blocks per task id
system.l2cache.tags.age_task_id_blocks_1024::3          190                       # Occupied blocks per task id
system.l2cache.tags.occ_task_id_percent::1022     0.227051                       # Percentage of cache occupancy per task id
system.l2cache.tags.occ_task_id_percent::1024     0.772949                       # Percentage of cache occupancy per task id
system.l2cache.tags.tag_accesses                15211                       # Number of tag accesses
system.l2cache.tags.data_accesses               15211                       # Number of data accesses
system.mem_ctrl.pwrStateResidencyTicks::UNDEFINED    121843200                       # Cumulative time (in ticks) in various power states
system.mem_ctrl.bytes_read::.cpu.inst           16768                       # Number of bytes read from this memory
system.mem_ctrl.bytes_read::.cpu.data           10880                       # Number of bytes read from this memory
system.mem_ctrl.bytes_read::.cpu.dcache.prefetcher         2176                       # Number of bytes read from this memory
system.mem_ctrl.bytes_read::total               29824                       # Number of bytes read from this memory
system.mem_ctrl.bytes_inst_read::.cpu.inst        16768                       # Number of instructions bytes read from this memory
system.mem_ctrl.bytes_inst_read::total          16768                       # Number of instructions bytes read from this memory
system.mem_ctrl.bytes_written::.writebacks         2048                       # Number of bytes written to this memory
system.mem_ctrl.bytes_written::total             2048                       # Number of bytes written to this memory
system.mem_ctrl.num_reads::.cpu.inst              262                       # Number of read requests responded to by this memory
system.mem_ctrl.num_reads::.cpu.data              170                       # Number of read requests responded to by this memory
system.mem_ctrl.num_reads::.cpu.dcache.prefetcher           34                       # Number of read requests responded to by this memory
system.mem_ctrl.num_reads::total                  466                       # Number of read requests responded to by this memory
system.mem_ctrl.num_writes::.writebacks            32                       # Number of write requests responded to by this memory
system.mem_ctrl.num_writes::total                  32                       # Number of write requests responded to by this memory
system.mem_ctrl.bw_read::.cpu.inst          137619498                       # Total read bandwidth from this memory (bytes/s)
system.mem_ctrl.bw_read::.cpu.data           89295094                       # Total read bandwidth from this memory (bytes/s)
system.mem_ctrl.bw_read::.cpu.dcache.prefetcher     17859019                       # Total read bandwidth from this memory (bytes/s)
system.mem_ctrl.bw_read::total              244773611                       # Total read bandwidth from this memory (bytes/s)
system.mem_ctrl.bw_inst_read::.cpu.inst     137619498                       # Instruction read bandwidth from this memory (bytes/s)
system.mem_ctrl.bw_inst_read::total         137619498                       # Instruction read bandwidth from this memory (bytes/s)
system.mem_ctrl.bw_write::.writebacks        16808488                       # Write bandwidth from this memory (bytes/s)
system.mem_ctrl.bw_write::total              16808488                       # Write bandwidth from this memory (bytes/s)
system.mem_ctrl.bw_total::.writebacks        16808488                       # Total bandwidth to/from this memory (bytes/s)
system.mem_ctrl.bw_total::.cpu.inst         137619498                       # Total bandwidth to/from this memory (bytes/s)
system.mem_ctrl.bw_total::.cpu.data          89295094                       # Total bandwidth to/from this memory (bytes/s)
system.mem_ctrl.bw_total::.cpu.dcache.prefetcher     17859019                       # Total bandwidth to/from this memory (bytes/s)
system.mem_ctrl.bw_total::total             261582099                       # Total bandwidth to/from this memory (bytes/s)

---------- End Simulation Statistics   ----------
