
---------- Begin Simulation Statistics ----------
final_tick                                 1277150400                       # Number of ticks from beginning of simulation (restored from checkpoints and never reset)
host_inst_rate                                 154671                       # Simulator instruction rate (inst/s)
host_mem_usage                                4406828                       # Number of bytes of host memory used
host_op_rate                                   274884                       # Simulator op (including micro ops) rate (op/s)
host_seconds                                    17.04                       # Real time elapsed on the host
host_tick_rate                               74933446                       # Simulator tick rate (ticks/s)
sim_freq                                 1000000000000                       # Frequency of simulated ticks
sim_insts                                     2636164                       # Number of instructions simulated
sim_ops                                       4685057                       # Number of ops (including micro ops) simulated
sim_seconds                                  0.001277                       # Number of seconds simulated
sim_ticks                                  1277150400                       # Number of ticks simulated
system.cpu.branchPred.BTBCorrect                    0                       # Number of correct BTB predictions (this stat may not work properly.
system.cpu.branchPred.BTBHitPct              0.000000                       # BTB Hit Percentage
system.cpu.branchPred.BTBHits                       0                       # Number of BTB hits
system.cpu.branchPred.BTBLookups               539829                       # Number of BTB lookups
system.cpu.branchPred.RASInCorrect                  8                       # Number of incorrect RAS predictions.
system.cpu.branchPred.condIncorrect             26153                       # Number of conditional branches incorrect
system.cpu.branchPred.condPredicted            570870                       # Number of conditional branches predicted
system.cpu.branchPred.indirectHits             296629                       # Number of indirect target hits.
system.cpu.branchPred.indirectLookups          539829                       # Number of indirect predictor lookups.
system.cpu.branchPred.indirectMisses           243200                       # Number of indirect misses.
system.cpu.branchPred.lookups                  615475                       # Number of BP lookups
system.cpu.branchPred.usedRAS                   20446                       # Number of times the RAS was used to get a target.
system.cpu.branchPredindirectMispredicted        13008                       # Number of mispredicted indirect branches.
system.cpu.cc_regfile_reads                   3004488                       # number of cc regfile reads
system.cpu.cc_regfile_writes                  2308973                       # number of cc regfile writes
system.cpu.commit.amos                              0                       # Number of atomic instructions committed
system.cpu.commit.branchMispredicts             26250                       # The number of times a branch was mispredicted
system.cpu.commit.branches                     461835                       # Number of branches committed
system.cpu.commit.bw_lim_events                769976                       # number cycles where commit BW limit reached
system.cpu.commit.commitNonSpecStalls             743                       # The number of times commit has been forced to stall to communicate backwards
system.cpu.commit.commitSquashedInsts          934959                       # The number of squashed insts skipped by commit
system.cpu.commit.committedInsts              2636164                       # Number of instructions committed
system.cpu.commit.committedOps                4685057                       # Number of ops (including micro ops) committed
system.cpu.commit.committed_per_cycle::samples      2772537                       # Number of insts commited each cycle
system.cpu.commit.committed_per_cycle::mean     1.689809                       # Number of insts commited each cycle
system.cpu.commit.committed_per_cycle::stdev     1.721623                       # Number of insts commited each cycle
system.cpu.commit.committed_per_cycle::underflows            0      0.00%      0.00% # Number of insts commited each cycle
system.cpu.commit.committed_per_cycle::0      1210032     43.64%     43.64% # Number of insts commited each cycle
system.cpu.commit.committed_per_cycle::1       272199      9.82%     53.46% # Number of insts commited each cycle
system.cpu.commit.committed_per_cycle::2       228036      8.22%     61.69% # Number of insts commited each cycle
system.cpu.commit.committed_per_cycle::3       292294     10.54%     72.23% # Number of insts commited each cycle
system.cpu.commit.committed_per_cycle::4       769976     27.77%    100.00% # Number of insts commited each cycle
system.cpu.commit.committed_per_cycle::overflows            0      0.00%    100.00% # Number of insts commited each cycle
system.cpu.commit.committed_per_cycle::min_value            0                       # Number of insts commited each cycle
system.cpu.commit.committed_per_cycle::max_value            4                       # Number of insts commited each cycle
system.cpu.commit.committed_per_cycle::total      2772537                       # Number of insts commited each cycle
system.cpu.commit.fp_insts                     111167                       # Number of committed floating point instructions.
system.cpu.commit.function_calls                18326                       # Number of function calls committed.
system.cpu.commit.int_insts                   4598262                       # Number of committed integer instructions.
system.cpu.commit.loads                        621649                       # Number of loads committed
system.cpu.commit.membars                           1                       # Number of memory barriers committed
system.cpu.commit.op_class_0::No_OpClass        24545      0.52%      0.52% # Class of committed instruction
system.cpu.commit.op_class_0::IntAlu          3667053     78.27%     78.80% # Class of committed instruction
system.cpu.commit.op_class_0::IntMult            7563      0.16%     78.96% # Class of committed instruction
system.cpu.commit.op_class_0::IntDiv            37714      0.80%     79.76% # Class of committed instruction
system.cpu.commit.op_class_0::FloatAdd           4425      0.09%     79.86% # Class of committed instruction
system.cpu.commit.op_class_0::FloatCmp              0      0.00%     79.86% # Class of committed instruction
system.cpu.commit.op_class_0::FloatCvt           1216      0.03%     79.88% # Class of committed instruction
system.cpu.commit.op_class_0::FloatMult             0      0.00%     79.88% # Class of committed instruction
system.cpu.commit.op_class_0::FloatMultAcc            0      0.00%     79.88% # Class of committed instruction
system.cpu.commit.op_class_0::FloatDiv              0      0.00%     79.88% # Class of committed instruction
system.cpu.commit.op_class_0::FloatMisc             0      0.00%     79.88% # Class of committed instruction
system.cpu.commit.op_class_0::FloatSqrt             0      0.00%     79.88% # Class of committed instruction
system.cpu.commit.op_class_0::SimdAdd            6262      0.13%     80.02% # Class of committed instruction
system.cpu.commit.op_class_0::SimdAddAcc            0      0.00%     80.02% # Class of committed instruction
system.cpu.commit.op_class_0::SimdAlu           17397      0.37%     80.39% # Class of committed instruction
system.cpu.commit.op_class_0::SimdCmp               0      0.00%     80.39% # Class of committed instruction
system.cpu.commit.op_class_0::SimdCvt           18360      0.39%     80.78% # Class of committed instruction
system.cpu.commit.op_class_0::SimdMisc          20396      0.44%     81.21% # Class of committed instruction
system.cpu.commit.op_class_0::SimdMult              0      0.00%     81.21% # Class of committed instruction
system.cpu.commit.op_class_0::SimdMultAcc            0      0.00%     81.21% # Class of committed instruction
system.cpu.commit.op_class_0::SimdShift          1162      0.02%     81.24% # Class of committed instruction
system.cpu.commit.op_class_0::SimdShiftAcc            0      0.00%     81.24% # Class of committed instruction
system.cpu.commit.op_class_0::SimdDiv               0      0.00%     81.24% # Class of committed instruction
system.cpu.commit.op_class_0::SimdSqrt              0      0.00%     81.24% # Class of committed instruction
system.cpu.commit.op_class_0::SimdFloatAdd            0      0.00%     81.24% # Class of committed instruction
system.cpu.commit.op_class_0::SimdFloatAlu            0      0.00%     81.24% # Class of committed instruction
system.cpu.commit.op_class_0::SimdFloatCmp            0      0.00%     81.24% # Class of committed instruction
system.cpu.commit.op_class_0::SimdFloatCvt            0      0.00%     81.24% # Class of committed instruction
system.cpu.commit.op_class_0::SimdFloatDiv            0      0.00%     81.24% # Class of committed instruction
system.cpu.commit.op_class_0::SimdFloatMisc            0      0.00%     81.24% # Class of committed instruction
system.cpu.commit.op_class_0::SimdFloatMult            0      0.00%     81.24% # Class of committed instruction
system.cpu.commit.op_class_0::SimdFloatMultAcc            0      0.00%     81.24% # Class of committed instruction
system.cpu.commit.op_class_0::SimdFloatSqrt            0      0.00%     81.24% # Class of committed instruction
system.cpu.commit.op_class_0::SimdReduceAdd            0      0.00%     81.24% # Class of committed instruction
system.cpu.commit.op_class_0::SimdReduceAlu            0      0.00%     81.24% # Class of committed instruction
system.cpu.commit.op_class_0::SimdReduceCmp            0      0.00%     81.24% # Class of committed instruction
system.cpu.commit.op_class_0::SimdFloatReduceAdd            0      0.00%     81.24% # Class of committed instruction
system.cpu.commit.op_class_0::SimdFloatReduceCmp            0      0.00%     81.24% # Class of committed instruction
system.cpu.commit.op_class_0::SimdAes               0      0.00%     81.24% # Class of committed instruction
system.cpu.commit.op_class_0::SimdAesMix            0      0.00%     81.24% # Class of committed instruction
system.cpu.commit.op_class_0::SimdSha1Hash            0      0.00%     81.24% # Class of committed instruction
system.cpu.commit.op_class_0::SimdSha1Hash2            0      0.00%     81.24% # Class of committed instruction
system.cpu.commit.op_class_0::SimdSha256Hash            0      0.00%     81.24% # Class of committed instruction
system.cpu.commit.op_class_0::SimdSha256Hash2            0      0.00%     81.24% # Class of committed instruction
system.cpu.commit.op_class_0::SimdShaSigma2            0      0.00%     81.24% # Class of committed instruction
system.cpu.commit.op_class_0::SimdShaSigma3            0      0.00%     81.24% # Class of committed instruction
system.cpu.commit.op_class_0::SimdPredAlu            0      0.00%     81.24% # Class of committed instruction
system.cpu.commit.op_class_0::MemRead          598283     12.77%     94.01% # Class of committed instruction
system.cpu.commit.op_class_0::MemWrite         244180      5.21%     99.22% # Class of committed instruction
system.cpu.commit.op_class_0::FloatMemRead        23366      0.50%     99.72% # Class of committed instruction
system.cpu.commit.op_class_0::FloatMemWrite        13135      0.28%    100.00% # Class of committed instruction
system.cpu.commit.op_class_0::IprAccess             0      0.00%    100.00% # Class of committed instruction
system.cpu.commit.op_class_0::InstPrefetch            0      0.00%    100.00% # Class of committed instruction
system.cpu.commit.op_class_0::total           4685057                       # Class of committed instruction
system.cpu.commit.refs                         878964                       # Number of memory references committed
system.cpu.commit.swp_count                         0                       # Number of s/w prefetches committed
system.cpu.commit.vec_insts                         0                       # Number of committed Vector instructions.
system.cpu.committedInsts                     2636164                       # Number of Instructions Simulated
system.cpu.committedOps                       4685057                       # Number of Ops (including micro ops) Simulated
system.cpu.cpi                               1.211183                       # CPI: Cycles Per Instruction
system.cpu.cpi_total                         1.211183                       # CPI: Total CPI of All Threads
system.cpu.dcache.prefetcher.num_hwpf_issued         8136                       # number of hwpf issued
system.cpu.dcache.prefetcher.pfBufferHit        32407                       # number of redundant prefetches already in prefetch queue
system.cpu.dcache.prefetcher.pfIdentified        47397                       # number of prefetch candidates identified
system.cpu.dcache.prefetcher.pfInCache              0                       # number of redundant prefetches already in cache/mshr dropped
system.cpu.dcache.prefetcher.pfRemovedFull            0                       # number of prefetches dropped due to prefetch queue size
system.cpu.dcache.prefetcher.pfSpanPage          4391                       # number of prefetches that crossed the page
system.cpu.decode.BlockedCycles               1036966                       # Number of cycles decode is blocked
system.cpu.decode.DecodedInsts                5852672                       # Number of instructions handled by decode
system.cpu.decode.IdleCycles                   403913                       # Number of cycles decode is idle
system.cpu.decode.RunCycles                   1467860                       # Number of cycles decode is running
system.cpu.decode.SquashCycles                  26337                       # Number of cycles decode is squashing
system.cpu.decode.UnblockCycles                 92136                       # Number of cycles decode is unblocking
system.cpu.dtb.rdAccesses                      711176                       # TLB accesses on read requests
system.cpu.dtb.rdMisses                          2143                       # TLB misses on read requests
system.cpu.dtb.wrAccesses                      277860                       # TLB accesses on write requests
system.cpu.dtb.wrMisses                           171                       # TLB misses on write requests
system.cpu.fetch.Branches                      615475                       # Number of branches that fetch encountered
system.cpu.fetch.CacheLines                    343029                       # Number of cache lines fetched
system.cpu.fetch.Cycles                       2564590                       # Number of cycles fetch has run and was not squashing or blocked
system.cpu.fetch.IcacheSquashes                  4921                       # Number of outstanding Icache misses that were squashed
system.cpu.fetch.Insts                        3446871                       # Number of instructions fetch has processed
system.cpu.fetch.MiscStallCycles                  141                       # Number of cycles fetch has spent waiting on interrupts, or bad addresses, or out of MSHRs
system.cpu.fetch.PendingQuiesceStallCycles            6                       # Number of stall cycles due to pending quiesce instructions
system.cpu.fetch.PendingTrapStallCycles           704                       # Number of stall cycles due to pending traps
system.cpu.fetch.SquashCycles                   52674                       # Number of cycles fetch has spent squashing
system.cpu.fetch.branchRate                  0.192765                       # Number of branch fetches per cycle
system.cpu.fetch.icacheStallCycles             435434                       # Number of cycles fetch is stalled on an Icache miss
system.cpu.fetch.predictedBranches             317075                       # Number of branches that fetch has predicted taken
system.cpu.fetch.rate                        1.079550                       # Number of inst fetches per cycle
system.cpu.fetch.rateDist::samples            3027212                       # Number of instructions fetched each cycle (Total)
system.cpu.fetch.rateDist::mean              2.026688                       # Number of instructions fetched each cycle (Total)
system.cpu.fetch.rateDist::stdev             1.920891                       # Number of instructions fetched each cycle (Total)
system.cpu.fetch.rateDist::underflows               0      0.00%      0.00% # Number of instructions fetched each cycle (Total)
system.cpu.fetch.rateDist::0                  1345286     44.44%     44.44% # Number of instructions fetched each cycle (Total)
system.cpu.fetch.rateDist::1                   115340      3.81%     48.25% # Number of instructions fetched each cycle (Total)
system.cpu.fetch.rateDist::2                    74300      2.45%     50.70% # Number of instructions fetched each cycle (Total)
system.cpu.fetch.rateDist::3                    97869      3.23%     53.94% # Number of instructions fetched each cycle (Total)
system.cpu.fetch.rateDist::4                  1394417     46.06%    100.00% # Number of instructions fetched each cycle (Total)
system.cpu.fetch.rateDist::overflows                0      0.00%    100.00% # Number of instructions fetched each cycle (Total)
system.cpu.fetch.rateDist::min_value                0                       # Number of instructions fetched each cycle (Total)
system.cpu.fetch.rateDist::max_value                4                       # Number of instructions fetched each cycle (Total)
system.cpu.fetch.rateDist::total              3027212                       # Number of instructions fetched each cycle (Total)
system.cpu.fp_regfile_reads                    184511                       # number of floating regfile reads
system.cpu.fp_regfile_writes                    99349                       # number of floating regfile writes
system.cpu.fuPool.fu_ticks_busy::IntALU(0)    274845600                       # Total ticks fu was busy
system.cpu.fuPool.fu_ticks_busy::IntALU(1)    274845600                       # Total ticks fu was busy
system.cpu.fuPool.fu_ticks_busy::IntALU(2)    274845600                       # Total ticks fu was busy
system.cpu.fuPool.fu_ticks_busy::IntALU(3)    274845200                       # Total ticks fu was busy
system.cpu.fuPool.fu_ticks_busy::IntALU(4)    274845200                       # Total ticks fu was busy
system.cpu.fuPool.fu_ticks_busy::IntALU(5)    274845200                       # Total ticks fu was busy
system.cpu.fuPool.fu_ticks_busy::IntMultDiv(0)      9794400                       # Total ticks fu was busy
system.cpu.fuPool.fu_ticks_busy::IntMultDiv(1)      9793600                       # Total ticks fu was busy
system.cpu.fuPool.fu_ticks_busy::FP_ALU(0)       723600                       # Total ticks fu was busy
system.cpu.fuPool.fu_ticks_busy::FP_ALU(1)       723600                       # Total ticks fu was busy
system.cpu.fuPool.fu_ticks_busy::FP_ALU(2)       723200                       # Total ticks fu was busy
system.cpu.fuPool.fu_ticks_busy::FP_ALU(3)       722800                       # Total ticks fu was busy
system.cpu.fuPool.fu_ticks_busy::FP_MultDiv(0)            0                       # Total ticks fu was busy
system.cpu.fuPool.fu_ticks_busy::FP_MultDiv(1)            0                       # Total ticks fu was busy
system.cpu.fuPool.fu_ticks_busy::SIMD_Unit(0)      7029600                       # Total ticks fu was busy
system.cpu.fuPool.fu_ticks_busy::SIMD_Unit(1)      7188800                       # Total ticks fu was busy
system.cpu.fuPool.fu_ticks_busy::SIMD_Unit(2)      7122800                       # Total ticks fu was busy
system.cpu.fuPool.fu_ticks_busy::SIMD_Unit(3)      7158800                       # Total ticks fu was busy
system.cpu.fuPool.fu_ticks_busy::PredALU(0)            0                       # Total ticks fu was busy
system.cpu.fuPool.fu_ticks_busy::RdWrPort(0)    100338000                       # Total ticks fu was busy
system.cpu.fuPool.fu_ticks_busy::RdWrPort(1)    100371200                       # Total ticks fu was busy
system.cpu.fuPool.fu_ticks_busy::RdWrPort(2)    100339600                       # Total ticks fu was busy
system.cpu.fuPool.fu_ticks_busy::RdWrPort(3)    100376800                       # Total ticks fu was busy
system.cpu.fuPool.fu_ticks_busy::IprPort(0)            0                       # Total ticks fu was busy
system.cpu.fuPool.fu_ticks_busy::total     2101479200                       # Total ticks fu was busy
system.cpu.icache.prefetcher.num_hwpf_issued            0                       # number of hwpf issued
system.cpu.icache.prefetcher.pfBufferHit            0                       # number of redundant prefetches already in prefetch queue
system.cpu.icache.prefetcher.pfIdentified            0                       # number of prefetch candidates identified
system.cpu.icache.prefetcher.pfInCache              0                       # number of redundant prefetches already in cache/mshr dropped
system.cpu.icache.prefetcher.pfRemovedFull            0                       # number of prefetches dropped due to prefetch queue size
system.cpu.icache.prefetcher.pfSpanPage             0                       # number of prefetches that crossed the page
system.cpu.idleCycles                          165665                       # Total number of cycles that the CPU has spent unscheduled due to idling
system.cpu.iew.branchMispredicts                31060                       # Number of branch mispredicts detected at execute
system.cpu.iew.exec_branches                   495003                       # Number of branches executed
system.cpu.iew.exec_nop                             0                       # number of nop insts executed
system.cpu.iew.exec_rate                     1.643447                       # Inst execution rate
system.cpu.iew.exec_refs                       989513                       # number of memory reference insts executed
system.cpu.iew.exec_stores                     277625                       # Number of stores executed
system.cpu.iew.exec_swp                             0                       # number of swp insts executed
system.cpu.iew.iewBlockCycles                  700005                       # Number of cycles IEW is blocking
system.cpu.iew.iewDispLoadInsts                745400                       # Number of dispatched load instructions
system.cpu.iew.iewDispNonSpecInsts                931                       # Number of dispatched non-speculative instructions
system.cpu.iew.iewDispSquashedInsts               604                       # Number of squashed instructions skipped by dispatch
system.cpu.iew.iewDispStoreInsts               289628                       # Number of dispatched store instructions
system.cpu.iew.iewDispatchedInsts             5619956                       # Number of instructions dispatched to IQ
system.cpu.iew.iewExecLoadInsts                711888                       # Number of load instructions executed
system.cpu.iew.iewExecSquashedInsts             37512                       # Number of squashed instructions skipped in execute
system.cpu.iew.iewExecutedInsts               5247325                       # Number of executed instructions
system.cpu.iew.iewIQFullEvents                   3238                       # Number of times the IQ has become full, causing a stall
system.cpu.iew.iewIdleCycles                        0                       # Number of cycles IEW is idle
system.cpu.iew.iewLSQFullEvents                  9220                       # Number of times the LSQ has become full, causing a stall
system.cpu.iew.iewSquashCycles                  26337                       # Number of cycles IEW is squashing
system.cpu.iew.iewUnblockCycles                 15273                       # Number of cycles IEW is unblocking
system.cpu.iew.lsq.thread0.blockedLoads             0                       # Number of blocked loads due to partial load-store forwarding
system.cpu.iew.lsq.thread0.cacheBlocked           601                       # Number of times an access to memory failed due to the cache being blocked
system.cpu.iew.lsq.thread0.forwLoads            49030                       # Number of loads that had data forwarded from stores
system.cpu.iew.lsq.thread0.ignoredResponses          276                       # Number of memory responses ignored because the instruction is squashed
system.cpu.iew.lsq.thread0.invAddrLoads             0                       # Number of loads ignored due to an invalid address
system.cpu.iew.lsq.thread0.invAddrSwpfs             0                       # Number of software prefetches ignored due to an invalid address
system.cpu.iew.lsq.thread0.memOrderViolation           97                       # Number of memory ordering violations
system.cpu.iew.lsq.thread0.rescheduledLoads           68                       # Number of loads that were rescheduled
system.cpu.iew.lsq.thread0.squashedLoads       123749                       # Number of loads squashed
system.cpu.iew.lsq.thread0.squashedStores        32312                       # Number of stores squashed
system.cpu.iew.memOrderViolationEvents             97                       # Number of memory order violations
system.cpu.iew.predictedNotTakenIncorrect        22198                       # Number of branches that were predicted not taken incorrectly
system.cpu.iew.predictedTakenIncorrect           8862                       # Number of branches that were predicted taken incorrectly
system.cpu.iew.wb_consumers                   7058267                       # num instructions consuming a value
system.cpu.iew.wb_count                       5224066                       # cumulative count of insts written-back
system.cpu.iew.wb_fanout                     0.576997                       # average fanout of values written-back
system.cpu.iew.wb_producers                   4072598                       # num instructions producing a value
system.cpu.iew.wb_rate                       1.636163                       # insts written-back per cycle
system.cpu.iew.wb_sent                        5231571                       # cumulative count of insts sent to commit
system.cpu.int_regfile_reads                  8075012                       # number of integer regfile reads
system.cpu.int_regfile_writes                 4431423                       # number of integer regfile writes
system.cpu.ipc                               0.825639                       # IPC: Instructions Per Cycle
system.cpu.ipc_total                         0.825639                       # IPC: Total IPC of All Threads
system.cpu.iq.FU_type_0::No_OpClass             31139      0.59%      0.59% # Type of FU issued
system.cpu.iq.FU_type_0::IntAlu               4122682     78.01%     78.60% # Type of FU issued
system.cpu.iq.FU_type_0::IntMult                 7587      0.14%     78.74% # Type of FU issued
system.cpu.iq.FU_type_0::IntDiv                 41383      0.78%     79.53% # Type of FU issued
system.cpu.iq.FU_type_0::FloatAdd                5979      0.11%     79.64% # Type of FU issued
system.cpu.iq.FU_type_0::FloatCmp                   0      0.00%     79.64% # Type of FU issued
system.cpu.iq.FU_type_0::FloatCvt                1254      0.02%     79.66% # Type of FU issued
system.cpu.iq.FU_type_0::FloatMult                  0      0.00%     79.66% # Type of FU issued
system.cpu.iq.FU_type_0::FloatMultAcc               0      0.00%     79.66% # Type of FU issued
system.cpu.iq.FU_type_0::FloatDiv                   0      0.00%     79.66% # Type of FU issued
system.cpu.iq.FU_type_0::FloatMisc                  0      0.00%     79.66% # Type of FU issued
system.cpu.iq.FU_type_0::FloatSqrt                  0      0.00%     79.66% # Type of FU issued
system.cpu.iq.FU_type_0::SimdAdd                 6915      0.13%     79.79% # Type of FU issued
system.cpu.iq.FU_type_0::SimdAddAcc                 0      0.00%     79.79% # Type of FU issued
system.cpu.iq.FU_type_0::SimdAlu                21011      0.40%     80.19% # Type of FU issued
system.cpu.iq.FU_type_0::SimdCmp                    0      0.00%     80.19% # Type of FU issued
system.cpu.iq.FU_type_0::SimdCvt                20101      0.38%     80.57% # Type of FU issued
system.cpu.iq.FU_type_0::SimdMisc               20976      0.40%     80.97% # Type of FU issued
system.cpu.iq.FU_type_0::SimdMult                   0      0.00%     80.97% # Type of FU issued
system.cpu.iq.FU_type_0::SimdMultAcc                0      0.00%     80.97% # Type of FU issued
system.cpu.iq.FU_type_0::SimdShift               2247      0.04%     81.01% # Type of FU issued
system.cpu.iq.FU_type_0::SimdShiftAcc               0      0.00%     81.01% # Type of FU issued
system.cpu.iq.FU_type_0::SimdDiv                    0      0.00%     81.01% # Type of FU issued
system.cpu.iq.FU_type_0::SimdSqrt                   0      0.00%     81.01% # Type of FU issued
system.cpu.iq.FU_type_0::SimdFloatAdd               0      0.00%     81.01% # Type of FU issued
system.cpu.iq.FU_type_0::SimdFloatAlu               0      0.00%     81.01% # Type of FU issued
system.cpu.iq.FU_type_0::SimdFloatCmp               0      0.00%     81.01% # Type of FU issued
system.cpu.iq.FU_type_0::SimdFloatCvt               0      0.00%     81.01% # Type of FU issued
system.cpu.iq.FU_type_0::SimdFloatDiv               0      0.00%     81.01% # Type of FU issued
system.cpu.iq.FU_type_0::SimdFloatMisc              0      0.00%     81.01% # Type of FU issued
system.cpu.iq.FU_type_0::SimdFloatMult              0      0.00%     81.01% # Type of FU issued
system.cpu.iq.FU_type_0::SimdFloatMultAcc            0      0.00%     81.01% # Type of FU issued
system.cpu.iq.FU_type_0::SimdFloatSqrt              0      0.00%     81.01% # Type of FU issued
system.cpu.iq.FU_type_0::SimdReduceAdd              0      0.00%     81.01% # Type of FU issued
system.cpu.iq.FU_type_0::SimdReduceAlu              0      0.00%     81.01% # Type of FU issued
system.cpu.iq.FU_type_0::SimdReduceCmp              0      0.00%     81.01% # Type of FU issued
system.cpu.iq.FU_type_0::SimdFloatReduceAdd            0      0.00%     81.01% # Type of FU issued
system.cpu.iq.FU_type_0::SimdFloatReduceCmp            0      0.00%     81.01% # Type of FU issued
system.cpu.iq.FU_type_0::SimdAes                    0      0.00%     81.01% # Type of FU issued
system.cpu.iq.FU_type_0::SimdAesMix                 0      0.00%     81.01% # Type of FU issued
system.cpu.iq.FU_type_0::SimdSha1Hash               0      0.00%     81.01% # Type of FU issued
system.cpu.iq.FU_type_0::SimdSha1Hash2              0      0.00%     81.01% # Type of FU issued
system.cpu.iq.FU_type_0::SimdSha256Hash             0      0.00%     81.01% # Type of FU issued
system.cpu.iq.FU_type_0::SimdSha256Hash2            0      0.00%     81.01% # Type of FU issued
system.cpu.iq.FU_type_0::SimdShaSigma2              0      0.00%     81.01% # Type of FU issued
system.cpu.iq.FU_type_0::SimdShaSigma3              0      0.00%     81.01% # Type of FU issued
system.cpu.iq.FU_type_0::SimdPredAlu                0      0.00%     81.01% # Type of FU issued
system.cpu.iq.FU_type_0::MemRead               693927     13.13%     94.14% # Type of FU issued
system.cpu.iq.FU_type_0::MemWrite              265873      5.03%     99.17% # Type of FU issued
system.cpu.iq.FU_type_0::FloatMemRead           29191      0.55%     99.72% # Type of FU issued
system.cpu.iq.FU_type_0::FloatMemWrite          14575      0.28%    100.00% # Type of FU issued
system.cpu.iq.FU_type_0::IprAccess                  0      0.00%    100.00% # Type of FU issued
system.cpu.iq.FU_type_0::InstPrefetch               0      0.00%    100.00% # Type of FU issued
system.cpu.iq.FU_type_0::total                5284840                       # Type of FU issued
system.cpu.iq.fp_alu_accesses                  127876                       # Number of floating point alu accesses
system.cpu.iq.fp_inst_queue_reads              257140                       # Number of floating instruction queue reads
system.cpu.iq.fp_inst_queue_wakeup_accesses       124372                       # Number of floating instruction queue wakeup accesses
system.cpu.iq.fp_inst_queue_writes             167841                       # Number of floating instruction queue writes
system.cpu.iq.fu_busy_cnt                           0                       # FU busy when requested
system.cpu.iq.fu_busy_rate                          0                       # FU busy rate (busy events/executed inst)
system.cpu.iq.fu_full::No_OpClass                   0                       # attempts to use FU when none available
system.cpu.iq.fu_full::IntAlu                       0                       # attempts to use FU when none available
system.cpu.iq.fu_full::IntMult                      0                       # attempts to use FU when none available
system.cpu.iq.fu_full::IntDiv                       0                       # attempts to use FU when none available
system.cpu.iq.fu_full::FloatAdd                     0                       # attempts to use FU when none available
system.cpu.iq.fu_full::FloatCmp                     0                       # attempts to use FU when none available
system.cpu.iq.fu_full::FloatCvt                     0                       # attempts to use FU when none available
system.cpu.iq.fu_full::FloatMult                    0                       # attempts to use FU when none available
system.cpu.iq.fu_full::FloatMultAcc                 0                       # attempts to use FU when none available
system.cpu.iq.fu_full::FloatDiv                     0                       # attempts to use FU when none available
system.cpu.iq.fu_full::FloatMisc                    0                       # attempts to use FU when none available
system.cpu.iq.fu_full::FloatSqrt                    0                       # attempts to use FU when none available
system.cpu.iq.fu_full::SimdAdd                      0                       # attempts to use FU when none available
system.cpu.iq.fu_full::SimdAddAcc                   0                       # attempts to use FU when none available
system.cpu.iq.fu_full::SimdAlu                      0                       # attempts to use FU when none available
system.cpu.iq.fu_full::SimdCmp                      0                       # attempts to use FU when none available
system.cpu.iq.fu_full::SimdCvt                      0                       # attempts to use FU when none available
system.cpu.iq.fu_full::SimdMisc                     0                       # attempts to use FU when none available
system.cpu.iq.fu_full::SimdMult                     0                       # attempts to use FU when none available
system.cpu.iq.fu_full::SimdMultAcc                  0                       # attempts to use FU when none available
system.cpu.iq.fu_full::SimdShift                    0                       # attempts to use FU when none available
system.cpu.iq.fu_full::SimdShiftAcc                 0                       # attempts to use FU when none available
system.cpu.iq.fu_full::SimdDiv                      0                       # attempts to use FU when none available
system.cpu.iq.fu_full::SimdSqrt                     0                       # attempts to use FU when none available
system.cpu.iq.fu_full::SimdFloatAdd                 0                       # attempts to use FU when none available
system.cpu.iq.fu_full::SimdFloatAlu                 0                       # attempts to use FU when none available
system.cpu.iq.fu_full::SimdFloatCmp                 0                       # attempts to use FU when none available
system.cpu.iq.fu_full::SimdFloatCvt                 0                       # attempts to use FU when none available
system.cpu.iq.fu_full::SimdFloatDiv                 0                       # attempts to use FU when none available
system.cpu.iq.fu_full::SimdFloatMisc                0                       # attempts to use FU when none available
system.cpu.iq.fu_full::SimdFloatMult                0                       # attempts to use FU when none available
system.cpu.iq.fu_full::SimdFloatMultAcc             0                       # attempts to use FU when none available
system.cpu.iq.fu_full::SimdFloatSqrt                0                       # attempts to use FU when none available
system.cpu.iq.fu_full::SimdReduceAdd                0                       # attempts to use FU when none available
system.cpu.iq.fu_full::SimdReduceAlu                0                       # attempts to use FU when none available
system.cpu.iq.fu_full::SimdReduceCmp                0                       # attempts to use FU when none available
system.cpu.iq.fu_full::SimdFloatReduceAdd            0                       # attempts to use FU when none available
system.cpu.iq.fu_full::SimdFloatReduceCmp            0                       # attempts to use FU when none available
system.cpu.iq.fu_full::SimdAes                      0                       # attempts to use FU when none available
system.cpu.iq.fu_full::SimdAesMix                   0                       # attempts to use FU when none available
system.cpu.iq.fu_full::SimdSha1Hash                 0                       # attempts to use FU when none available
system.cpu.iq.fu_full::SimdSha1Hash2                0                       # attempts to use FU when none available
system.cpu.iq.fu_full::SimdSha256Hash               0                       # attempts to use FU when none available
system.cpu.iq.fu_full::SimdSha256Hash2              0                       # attempts to use FU when none available
system.cpu.iq.fu_full::SimdShaSigma2                0                       # attempts to use FU when none available
system.cpu.iq.fu_full::SimdShaSigma3                0                       # attempts to use FU when none available
system.cpu.iq.fu_full::SimdPredAlu                  0                       # attempts to use FU when none available
system.cpu.iq.fu_full::MemRead                      0                       # attempts to use FU when none available
system.cpu.iq.fu_full::MemWrite                     0                       # attempts to use FU when none available
system.cpu.iq.fu_full::FloatMemRead                 0                       # attempts to use FU when none available
system.cpu.iq.fu_full::FloatMemWrite                0                       # attempts to use FU when none available
system.cpu.iq.fu_full::IprAccess                    0                       # attempts to use FU when none available
system.cpu.iq.fu_full::InstPrefetch                 0                       # attempts to use FU when none available
system.cpu.iq.int_alu_accesses                5125825                       # Number of integer alu accesses
system.cpu.iq.int_inst_queue_reads           13359756                       # Number of integer instruction queue reads
system.cpu.iq.int_inst_queue_wakeup_accesses      5099694                       # Number of integer instruction queue wakeup accesses
system.cpu.iq.int_inst_queue_writes           6387098                       # Number of integer instruction queue writes
system.cpu.iq.iqInstsAdded                    5618856                       # Number of instructions added to the IQ (excludes non-spec)
system.cpu.iq.iqInstsIssued                   5284840                       # Number of instructions issued
system.cpu.iq.iqNonSpecInstsAdded                1100                       # Number of non-speculative instructions added to the IQ
system.cpu.iq.iqSquashedInstsExamined          934888                       # Number of squashed instructions iterated over during squash; mainly for profiling
system.cpu.iq.iqSquashedInstsIssued             20007                       # Number of squashed instructions issued
system.cpu.iq.iqSquashedNonSpecRemoved            357                       # Number of squashed non-spec instructions that were removed
system.cpu.iq.iqSquashedOperandsExamined      1387741                       # Number of squashed operands that are examined and possibly removed from graph
system.cpu.iq.issued_per_cycle::samples       3027212                       # Number of insts issued each cycle
system.cpu.iq.issued_per_cycle::mean         1.745778                       # Number of insts issued each cycle
system.cpu.iq.issued_per_cycle::stdev        1.655043                       # Number of insts issued each cycle
system.cpu.iq.issued_per_cycle::underflows            0      0.00%      0.00% # Number of insts issued each cycle
system.cpu.iq.issued_per_cycle::0             1217661     40.22%     40.22% # Number of insts issued each cycle
system.cpu.iq.issued_per_cycle::1              244144      8.06%     48.29% # Number of insts issued each cycle
system.cpu.iq.issued_per_cycle::2              387031     12.79%     61.07% # Number of insts issued each cycle
system.cpu.iq.issued_per_cycle::3              446870     14.76%     75.84% # Number of insts issued each cycle
system.cpu.iq.issued_per_cycle::4              731506     24.16%    100.00% # Number of insts issued each cycle
system.cpu.iq.issued_per_cycle::overflows            0      0.00%    100.00% # Number of insts issued each cycle
system.cpu.iq.issued_per_cycle::min_value            0                       # Number of insts issued each cycle
system.cpu.iq.issued_per_cycle::max_value            4                       # Number of insts issued each cycle
system.cpu.iq.issued_per_cycle::total         3027212                       # Number of insts issued each cycle
system.cpu.iq.rate                           1.655197                       # Inst issue rate
system.cpu.iq.vec_alu_accesses                      0                       # Number of vector alu accesses
system.cpu.iq.vec_inst_queue_reads                  0                       # Number of vector instruction queue reads
system.cpu.iq.vec_inst_queue_wakeup_accesses            0                       # Number of vector instruction queue wakeup accesses
system.cpu.iq.vec_inst_queue_writes                 0                       # Number of vector instruction queue writes
system.cpu.itb.rdAccesses                           0                       # TLB accesses on read requests
system.cpu.itb.rdMisses                             0                       # TLB misses on read requests
system.cpu.itb.wrAccesses                      343146                       # TLB accesses on write requests
system.cpu.itb.wrMisses                           369                       # TLB misses on write requests
system.cpu.memDep0.conflictingLoads             13708                       # Number of conflicting loads.
system.cpu.memDep0.conflictingStores             4735                       # Number of conflicting stores.
system.cpu.memDep0.insertedLoads               745400                       # Number of loads inserted to the mem dependence unit.
system.cpu.memDep0.insertedStores              289628                       # Number of stores inserted to the mem dependence unit.
system.cpu.misc_regfile_reads                 2020579                       # number of misc regfile reads
system.cpu.misc_regfile_writes                    684                       # number of misc regfile writes
system.cpu.numCycles                          3192877                       # number of cpu cycles simulated
system.cpu.numWorkItemsCompleted                    0                       # number of work items this cpu completed
system.cpu.numWorkItemsStarted                      0                       # number of work items this cpu started
system.cpu.process.numSyscalls                     58                       # Number of system calls
system.cpu.rename.BlockCycles                  848456                       # Number of cycles rename is blocking
system.cpu.rename.CommittedMaps               6183233                       # Number of HB maps that are committed
system.cpu.rename.FullRegisterEvents               18                       # Number of times there has been no free registers
system.cpu.rename.IQFullEvents                  47891                       # Number of times rename has blocked due to IQ full
system.cpu.rename.IdleCycles                   456551                       # Number of cycles rename is idle
system.cpu.rename.LQFullEvents                  15630                       # Number of times rename has blocked due to LQ full
system.cpu.rename.ROBFullEvents                  4786                       # Number of times rename has blocked due to ROB full
system.cpu.rename.RenameLookups              15015406                       # Number of register rename lookups that rename has made
system.cpu.rename.RenamedInsts                5772795                       # Number of instructions processed by rename
system.cpu.rename.RenamedOperands             7645025                       # Number of destination operands rename has renamed
system.cpu.rename.RunCycles                   1498593                       # Number of cycles rename is running
system.cpu.rename.SQFullEvents                  75476                       # Number of times rename has blocked due to SQ full
system.cpu.rename.SquashCycles                  26337                       # Number of cycles rename is squashing
system.cpu.rename.UnblockCycles                177567                       # Number of cycles rename is unblocking
system.cpu.rename.UndoneMaps                  1461769                       # Number of HB maps that are undone due to squashing
system.cpu.rename.fp_rename_lookups            219188                       # Number of floating rename lookups
system.cpu.rename.int_rename_lookups          9071574                       # Number of integer rename lookups
system.cpu.rename.serializeStallCycles          19708                       # count of cycles rename stalled for serializing inst
system.cpu.rename.serializingInsts                883                       # count of serializing insts renamed
system.cpu.rename.skidInsts                    212582                       # count of insts added to the skid buffer
system.cpu.rename.tempSerializingInsts            935                       # count of temporary serializing insts renamed
system.cpu.rob.rob_reads                      7622577                       # The number of ROB reads
system.cpu.rob.rob_writes                    11495667                       # The number of ROB writes
system.cpu.timesIdled                            1627                       # Number of times that the entire CPU went into an idle state and unscheduled itself
system.l2bus.snoop_filter.hit_multi_requests           12                       # Number of requests hitting in the snoop filter with multiple (>1) holders of the requested data.
system.l2bus.snoop_filter.hit_multi_snoops            0                       # Number of snoops hitting in the snoop filter with multiple (>1) holders of the requested data.
system.l2bus.snoop_filter.hit_single_requests        18635                       # Number of requests hitting in the snoop filter with a single holder of the requested data.
system.l2bus.snoop_filter.hit_single_snoops          442                       # Number of snoops hitting in the snoop filter with a single holder of the requested data.
system.l2bus.snoop_filter.tot_requests          38550                       # Total number of requests made to the snoop filter.
system.l2bus.snoop_filter.tot_snoops              442                       # Total number of snoops made to the snoop filter.
system.l2cache.prefetcher.num_hwpf_issued          713                       # number of hwpf issued
system.l2cache.prefetcher.pfBufferHit               0                       # number of redundant prefetches already in prefetch queue
system.l2cache.prefetcher.pfIdentified            713                       # number of prefetch candidates identified
system.l2cache.prefetcher.pfInCache                 0                       # number of redundant prefetches already in cache/mshr dropped
system.l2cache.prefetcher.pfRemovedFull             0                       # number of prefetches dropped due to prefetch queue size
system.l2cache.prefetcher.pfSpanPage              127                       # number of prefetches that crossed the page
system.membus.snoop_filter.hit_multi_requests            0                       # Number of requests hitting in the snoop filter with multiple (>1) holders of the requested data.
system.membus.snoop_filter.hit_multi_snoops            0                       # Number of snoops hitting in the snoop filter with multiple (>1) holders of the requested data.
system.membus.snoop_filter.hit_single_requests         9583                       # Number of requests hitting in the snoop filter with a single holder of the requested data.
system.membus.snoop_filter.hit_single_snoops            0                       # Number of snoops hitting in the snoop filter with a single holder of the requested data.
system.membus.snoop_filter.tot_requests         23297                       # Total number of requests made to the snoop filter.
system.membus.snoop_filter.tot_snoops               0                       # Total number of snoops made to the snoop filter.
system.membus.pwrStateResidencyTicks::UNDEFINED   1277150400                       # Cumulative time (in ticks) in various power states
system.membus.trans_dist::ReadResp              12230                       # Transaction distribution
system.membus.trans_dist::WritebackDirty         1342                       # Transaction distribution
system.membus.trans_dist::CleanEvict             8241                       # Transaction distribution
system.membus.trans_dist::ReadExReq              1484                       # Transaction distribution
system.membus.trans_dist::ReadExResp             1484                       # Transaction distribution
system.membus.trans_dist::ReadSharedReq         12230                       # Transaction distribution
system.membus.pkt_count_system.l2cache.mem_side::system.mem_ctrl.port        37011                       # Packet count per connected master and slave (bytes)
system.membus.pkt_count_system.l2cache.mem_side::total        37011                       # Packet count per connected master and slave (bytes)
system.membus.pkt_count::total                  37011                       # Packet count per connected master and slave (bytes)
system.membus.pkt_size_system.l2cache.mem_side::system.mem_ctrl.port       963584                       # Cumulative packet size per connected master and slave (bytes)
system.membus.pkt_size_system.l2cache.mem_side::total       963584                       # Cumulative packet size per connected master and slave (bytes)
system.membus.pkt_size::total                  963584                       # Cumulative packet size per connected master and slave (bytes)
system.membus.snoops                                0                       # Total snoops (count)
system.membus.snoopTraffic                          0                       # Total snoop traffic (bytes)
system.membus.snoop_fanout::samples             13714                       # Request fanout histogram
system.membus.snoop_fanout::mean                    0                       # Request fanout histogram
system.membus.snoop_fanout::stdev                   0                       # Request fanout histogram
system.membus.snoop_fanout::underflows              0      0.00%      0.00% # Request fanout histogram
system.membus.snoop_fanout::0                   13714    100.00%    100.00% # Request fanout histogram
system.membus.snoop_fanout::1                       0      0.00%    100.00% # Request fanout histogram
system.membus.snoop_fanout::overflows               0      0.00%    100.00% # Request fanout histogram
system.membus.snoop_fanout::min_value               0                       # Request fanout histogram
system.membus.snoop_fanout::max_value               0                       # Request fanout histogram
system.membus.snoop_fanout::total               13714                       # Request fanout histogram
system.membus.reqLayer2.occupancy            11496224                       # Layer occupancy (ticks)
system.membus.reqLayer2.utilization               0.9                       # Layer utilization (%)
system.membus.respLayer0.occupancy           29776776                       # Layer occupancy (ticks)
system.membus.respLayer0.utilization              2.3                       # Layer utilization (%)
system.l2bus.pwrStateResidencyTicks::UNDEFINED   1277150400                       # Cumulative time (in ticks) in various power states
system.l2bus.trans_dist::ReadResp               17668                       # Transaction distribution
system.l2bus.trans_dist::WritebackDirty          4171                       # Transaction distribution
system.l2bus.trans_dist::CleanEvict             24137                       # Transaction distribution
system.l2bus.trans_dist::HardPFReq                994                       # Transaction distribution
system.l2bus.trans_dist::UpgradeReq                 1                       # Transaction distribution
system.l2bus.trans_dist::UpgradeResp                1                       # Transaction distribution
system.l2bus.trans_dist::ReadExReq               2247                       # Transaction distribution
system.l2bus.trans_dist::ReadExResp              2247                       # Transaction distribution
system.l2bus.trans_dist::ReadSharedReq          17668                       # Transaction distribution
system.l2bus.pkt_count_system.cpu.icache.mem_side::system.l2cache.cpu_side         8428                       # Packet count per connected master and slave (bytes)
system.l2bus.pkt_count_system.cpu.dcache.mem_side::system.l2cache.cpu_side        50035                       # Packet count per connected master and slave (bytes)
system.l2bus.pkt_count::total                   58463                       # Packet count per connected master and slave (bytes)
system.l2bus.pkt_size_system.cpu.icache.mem_side::system.l2cache.cpu_side       185152                       # Cumulative packet size per connected master and slave (bytes)
system.l2bus.pkt_size_system.cpu.dcache.mem_side::system.l2cache.cpu_side      1270272                       # Cumulative packet size per connected master and slave (bytes)
system.l2bus.pkt_size::total                  1455424                       # Cumulative packet size per connected master and slave (bytes)
system.l2bus.snoops                             10671                       # Total snoops (count)
system.l2bus.snoopTraffic                       86080                       # Total snoop traffic (bytes)
system.l2bus.snoop_fanout::samples              30584                       # Request fanout histogram
system.l2bus.snoop_fanout::mean              0.014877                       # Request fanout histogram
system.l2bus.snoop_fanout::stdev             0.121063                       # Request fanout histogram
system.l2bus.snoop_fanout::underflows               0      0.00%      0.00% # Request fanout histogram
system.l2bus.snoop_fanout::0                    30129     98.51%     98.51% # Request fanout histogram
system.l2bus.snoop_fanout::1                      455      1.49%    100.00% # Request fanout histogram
system.l2bus.snoop_fanout::2                        0      0.00%    100.00% # Request fanout histogram
system.l2bus.snoop_fanout::overflows                0      0.00%    100.00% # Request fanout histogram
system.l2bus.snoop_fanout::min_value                0                       # Request fanout histogram
system.l2bus.snoop_fanout::max_value                1                       # Request fanout histogram
system.l2bus.snoop_fanout::total                30584                       # Request fanout histogram
system.l2bus.respLayer1.occupancy            20423599                       # Layer occupancy (ticks)
system.l2bus.respLayer1.utilization               1.6                       # Layer utilization (%)
system.l2bus.reqLayer0.occupancy             19132609                       # Layer occupancy (ticks)
system.l2bus.reqLayer0.utilization                1.5                       # Layer utilization (%)
system.l2bus.respLayer0.occupancy             3475998                       # Layer occupancy (ticks)
system.l2bus.respLayer0.utilization               0.3                       # Layer utilization (%)
system.clk_domain.clock                           400                       # Clock period in ticks
system.clk_domain.voltage_domain.voltage            1                       # Voltage in Volts
system.cpu.pwrStateResidencyTicks::ON      1277150400                       # Cumulative time (in ticks) in various power states
system.cpu.icache.pwrStateResidencyTicks::UNDEFINED   1277150400                       # Cumulative time (in ticks) in various power states
system.cpu.icache.demand_hits::.cpu.inst       339435                       # number of demand (read+write) hits
system.cpu.icache.demand_hits::total           339435                       # number of demand (read+write) hits
system.cpu.icache.overall_hits::.cpu.inst       339435                       # number of overall hits
system.cpu.icache.overall_hits::total          339435                       # number of overall hits
system.cpu.icache.demand_misses::.cpu.inst         3593                       # number of demand (read+write) misses
system.cpu.icache.demand_misses::total           3593                       # number of demand (read+write) misses
system.cpu.icache.overall_misses::.cpu.inst         3593                       # number of overall misses
system.cpu.icache.overall_misses::total          3593                       # number of overall misses
system.cpu.icache.demand_miss_latency::.cpu.inst    178517600                       # number of demand (read+write) miss cycles
system.cpu.icache.demand_miss_latency::total    178517600                       # number of demand (read+write) miss cycles
system.cpu.icache.overall_miss_latency::.cpu.inst    178517600                       # number of overall miss cycles
system.cpu.icache.overall_miss_latency::total    178517600                       # number of overall miss cycles
system.cpu.icache.demand_accesses::.cpu.inst       343028                       # number of demand (read+write) accesses
system.cpu.icache.demand_accesses::total       343028                       # number of demand (read+write) accesses
system.cpu.icache.overall_accesses::.cpu.inst       343028                       # number of overall (read+write) accesses
system.cpu.icache.overall_accesses::total       343028                       # number of overall (read+write) accesses
system.cpu.icache.demand_miss_rate::.cpu.inst     0.010474                       # miss rate for demand accesses
system.cpu.icache.demand_miss_rate::total     0.010474                       # miss rate for demand accesses
system.cpu.icache.overall_miss_rate::.cpu.inst     0.010474                       # miss rate for overall accesses
system.cpu.icache.overall_miss_rate::total     0.010474                       # miss rate for overall accesses
system.cpu.icache.demand_avg_miss_latency::.cpu.inst 49684.831617                       # average overall miss latency
system.cpu.icache.demand_avg_miss_latency::total 49684.831617                       # average overall miss latency
system.cpu.icache.overall_avg_miss_latency::.cpu.inst 49684.831617                       # average overall miss latency
system.cpu.icache.overall_avg_miss_latency::total 49684.831617                       # average overall miss latency
system.cpu.icache.blocked_cycles::no_mshrs          187                       # number of cycles access was blocked
system.cpu.icache.blocked_cycles::no_targets            0                       # number of cycles access was blocked
system.cpu.icache.blocked::no_mshrs                 4                       # number of cycles access was blocked
system.cpu.icache.blocked::no_targets               0                       # number of cycles access was blocked
system.cpu.icache.avg_blocked_cycles::no_mshrs    46.750000                       # average number of cycles each access was blocked
system.cpu.icache.avg_blocked_cycles::no_targets          nan                       # average number of cycles each access was blocked
system.cpu.icache.demand_mshr_hits::.cpu.inst          697                       # number of demand (read+write) MSHR hits
system.cpu.icache.demand_mshr_hits::total          697                       # number of demand (read+write) MSHR hits
system.cpu.icache.overall_mshr_hits::.cpu.inst          697                       # number of overall MSHR hits
system.cpu.icache.overall_mshr_hits::total          697                       # number of overall MSHR hits
system.cpu.icache.demand_mshr_misses::.cpu.inst         2896                       # number of demand (read+write) MSHR misses
system.cpu.icache.demand_mshr_misses::total         2896                       # number of demand (read+write) MSHR misses
system.cpu.icache.overall_mshr_misses::.cpu.inst         2896                       # number of overall MSHR misses
system.cpu.icache.overall_mshr_misses::total         2896                       # number of overall MSHR misses
system.cpu.icache.demand_mshr_miss_latency::.cpu.inst    145301600                       # number of demand (read+write) MSHR miss cycles
system.cpu.icache.demand_mshr_miss_latency::total    145301600                       # number of demand (read+write) MSHR miss cycles
system.cpu.icache.overall_mshr_miss_latency::.cpu.inst    145301600                       # number of overall MSHR miss cycles
system.cpu.icache.overall_mshr_miss_latency::total    145301600                       # number of overall MSHR miss cycles
system.cpu.icache.demand_mshr_miss_rate::.cpu.inst     0.008442                       # mshr miss rate for demand accesses
system.cpu.icache.demand_mshr_miss_rate::total     0.008442                       # mshr miss rate for demand accesses
system.cpu.icache.overall_mshr_miss_rate::.cpu.inst     0.008442                       # mshr miss rate for overall accesses
system.cpu.icache.overall_mshr_miss_rate::total     0.008442                       # mshr miss rate for overall accesses
system.cpu.icache.demand_avg_mshr_miss_latency::.cpu.inst 50173.204420                       # average overall mshr miss latency
system.cpu.icache.demand_avg_mshr_miss_latency::total 50173.204420                       # average overall mshr miss latency
system.cpu.icache.overall_avg_mshr_miss_latency::.cpu.inst 50173.204420                       # average overall mshr miss latency
system.cpu.icache.overall_avg_mshr_miss_latency::total 50173.204420                       # average overall mshr miss latency
system.cpu.icache.replacements                   2639                       # number of replacements
system.cpu.icache.ReadReq_hits::.cpu.inst       339435                       # number of ReadReq hits
system.cpu.icache.ReadReq_hits::total          339435                       # number of ReadReq hits
system.cpu.icache.ReadReq_misses::.cpu.inst         3593                       # number of ReadReq misses
system.cpu.icache.ReadReq_misses::total          3593                       # number of ReadReq misses
system.cpu.icache.ReadReq_miss_latency::.cpu.inst    178517600                       # number of ReadReq miss cycles
system.cpu.icache.ReadReq_miss_latency::total    178517600                       # number of ReadReq miss cycles
system.cpu.icache.ReadReq_accesses::.cpu.inst       343028                       # number of ReadReq accesses(hits+misses)
system.cpu.icache.ReadReq_accesses::total       343028                       # number of ReadReq accesses(hits+misses)
system.cpu.icache.ReadReq_miss_rate::.cpu.inst     0.010474                       # miss rate for ReadReq accesses
system.cpu.icache.ReadReq_miss_rate::total     0.010474                       # miss rate for ReadReq accesses
system.cpu.icache.ReadReq_avg_miss_latency::.cpu.inst 49684.831617                       # average ReadReq miss latency
system.cpu.icache.ReadReq_avg_miss_latency::total 49684.831617                       # average ReadReq miss latency
system.cpu.icache.ReadReq_mshr_hits::.cpu.inst          697                       # number of ReadReq MSHR hits
system.cpu.icache.ReadReq_mshr_hits::total          697                       # number of ReadReq MSHR hits
system.cpu.icache.ReadReq_mshr_misses::.cpu.inst         2896                       # number of ReadReq MSHR misses
system.cpu.icache.ReadReq_mshr_misses::total         2896                       # number of ReadReq MSHR misses
system.cpu.icache.ReadReq_mshr_miss_latency::.cpu.inst    145301600                       # number of ReadReq MSHR miss cycles
system.cpu.icache.ReadReq_mshr_miss_latency::total    145301600                       # number of ReadReq MSHR miss cycles
system.cpu.icache.ReadReq_mshr_miss_rate::.cpu.inst     0.008442                       # mshr miss rate for ReadReq accesses
system.cpu.icache.ReadReq_mshr_miss_rate::total     0.008442                       # mshr miss rate for ReadReq accesses
system.cpu.icache.ReadReq_avg_mshr_miss_latency::.cpu.inst 50173.204420                       # average ReadReq mshr miss latency
system.cpu.icache.ReadReq_avg_mshr_miss_latency::total 50173.204420                       # average ReadReq mshr miss latency
system.cpu.icache.prefetcher.pwrStateResidencyTicks::UNDEFINED   1277150400                       # Cumulative time (in ticks) in various power states
system.cpu.icache.tags.pwrStateResidencyTicks::UNDEFINED   1277150400                       # Cumulative time (in ticks) in various power states
system.cpu.icache.tags.tagsinuse           253.824469                       # Cycle average of tags in use
system.cpu.icache.tags.total_refs              270842                       # Total number of references to valid blocks.
system.cpu.icache.tags.sampled_refs              2640                       # Sample count of references to valid blocks.
system.cpu.icache.tags.avg_refs            102.591667                       # Average number of references to valid blocks.
system.cpu.icache.tags.warmup_cycle             66400                       # Cycle when the warmup percentage was hit.
system.cpu.icache.tags.occ_blocks::.cpu.inst   253.824469                       # Average occupied blocks per requestor
system.cpu.icache.tags.occ_percent::.cpu.inst     0.991502                       # Average percentage of cache occupancy
system.cpu.icache.tags.occ_percent::total     0.991502                       # Average percentage of cache occupancy
system.cpu.icache.tags.occ_task_id_blocks::1024          256                       # Occupied blocks per task id
system.cpu.icache.tags.age_task_id_blocks_1024::0          103                       # Occupied blocks per task id
system.cpu.icache.tags.age_task_id_blocks_1024::1            6                       # Occupied blocks per task id
system.cpu.icache.tags.age_task_id_blocks_1024::2          143                       # Occupied blocks per task id
system.cpu.icache.tags.age_task_id_blocks_1024::3            4                       # Occupied blocks per task id
system.cpu.icache.tags.occ_task_id_percent::1024            1                       # Percentage of cache occupancy per task id
system.cpu.icache.tags.tag_accesses            688952                       # Number of tag accesses
system.cpu.icache.tags.data_accesses           688952                       # Number of data accesses
system.cpu.dtb.walker.pwrStateResidencyTicks::UNDEFINED   1277150400                       # Cumulative time (in ticks) in various power states
system.cpu.interrupts.clk_domain.clock           6400                       # Clock period in ticks
system.cpu.itb.walker.pwrStateResidencyTicks::UNDEFINED   1277150400                       # Cumulative time (in ticks) in various power states
system.cpu.dcache.pwrStateResidencyTicks::UNDEFINED   1277150400                       # Cumulative time (in ticks) in various power states
system.cpu.dcache.demand_hits::.cpu.data       883727                       # number of demand (read+write) hits
system.cpu.dcache.demand_hits::total           883727                       # number of demand (read+write) hits
system.cpu.dcache.overall_hits::.cpu.data       883727                       # number of overall hits
system.cpu.dcache.overall_hits::total          883727                       # number of overall hits
system.cpu.dcache.demand_misses::.cpu.data        34663                       # number of demand (read+write) misses
system.cpu.dcache.demand_misses::total          34663                       # number of demand (read+write) misses
system.cpu.dcache.overall_misses::.cpu.data        34663                       # number of overall misses
system.cpu.dcache.overall_misses::total         34663                       # number of overall misses
system.cpu.dcache.demand_miss_latency::.cpu.data   1685058400                       # number of demand (read+write) miss cycles
system.cpu.dcache.demand_miss_latency::total   1685058400                       # number of demand (read+write) miss cycles
system.cpu.dcache.overall_miss_latency::.cpu.data   1685058400                       # number of overall miss cycles
system.cpu.dcache.overall_miss_latency::total   1685058400                       # number of overall miss cycles
system.cpu.dcache.demand_accesses::.cpu.data       918390                       # number of demand (read+write) accesses
system.cpu.dcache.demand_accesses::total       918390                       # number of demand (read+write) accesses
system.cpu.dcache.overall_accesses::.cpu.data       918390                       # number of overall (read+write) accesses
system.cpu.dcache.overall_accesses::total       918390                       # number of overall (read+write) accesses
system.cpu.dcache.demand_miss_rate::.cpu.data     0.037743                       # miss rate for demand accesses
system.cpu.dcache.demand_miss_rate::total     0.037743                       # miss rate for demand accesses
system.cpu.dcache.overall_miss_rate::.cpu.data     0.037743                       # miss rate for overall accesses
system.cpu.dcache.overall_miss_rate::total     0.037743                       # miss rate for overall accesses
system.cpu.dcache.demand_avg_miss_latency::.cpu.data 48612.595563                       # average overall miss latency
system.cpu.dcache.demand_avg_miss_latency::total 48612.595563                       # average overall miss latency
system.cpu.dcache.overall_avg_miss_latency::.cpu.data 48612.595563                       # average overall miss latency
system.cpu.dcache.overall_avg_miss_latency::total 48612.595563                       # average overall miss latency
system.cpu.dcache.blocked_cycles::no_mshrs        29135                       # number of cycles access was blocked
system.cpu.dcache.blocked_cycles::no_targets          138                       # number of cycles access was blocked
system.cpu.dcache.blocked::no_mshrs               739                       # number of cycles access was blocked
system.cpu.dcache.blocked::no_targets               1                       # number of cycles access was blocked
system.cpu.dcache.avg_blocked_cycles::no_mshrs    39.424899                       # average number of cycles each access was blocked
system.cpu.dcache.avg_blocked_cycles::no_targets          138                       # average number of cycles each access was blocked
system.cpu.dcache.unused_prefetches              1766                       # number of HardPF blocks evicted w/o reference
system.cpu.dcache.writebacks::.writebacks         2829                       # number of writebacks
system.cpu.dcache.writebacks::total              2829                       # number of writebacks
system.cpu.dcache.demand_mshr_hits::.cpu.data        22039                       # number of demand (read+write) MSHR hits
system.cpu.dcache.demand_mshr_hits::total        22039                       # number of demand (read+write) MSHR hits
system.cpu.dcache.overall_mshr_hits::.cpu.data        22039                       # number of overall MSHR hits
system.cpu.dcache.overall_mshr_hits::total        22039                       # number of overall MSHR hits
system.cpu.dcache.demand_mshr_misses::.cpu.data        12624                       # number of demand (read+write) MSHR misses
system.cpu.dcache.demand_mshr_misses::total        12624                       # number of demand (read+write) MSHR misses
system.cpu.dcache.overall_mshr_misses::.cpu.data        12624                       # number of overall MSHR misses
system.cpu.dcache.overall_mshr_misses::.cpu.dcache.prefetcher         4396                       # number of overall MSHR misses
system.cpu.dcache.overall_mshr_misses::total        17020                       # number of overall MSHR misses
system.cpu.dcache.demand_mshr_miss_latency::.cpu.data    584105200                       # number of demand (read+write) MSHR miss cycles
system.cpu.dcache.demand_mshr_miss_latency::total    584105200                       # number of demand (read+write) MSHR miss cycles
system.cpu.dcache.overall_mshr_miss_latency::.cpu.data    584105200                       # number of overall MSHR miss cycles
system.cpu.dcache.overall_mshr_miss_latency::.cpu.dcache.prefetcher    251134086                       # number of overall MSHR miss cycles
system.cpu.dcache.overall_mshr_miss_latency::total    835239286                       # number of overall MSHR miss cycles
system.cpu.dcache.demand_mshr_miss_rate::.cpu.data     0.013746                       # mshr miss rate for demand accesses
system.cpu.dcache.demand_mshr_miss_rate::total     0.013746                       # mshr miss rate for demand accesses
system.cpu.dcache.overall_mshr_miss_rate::.cpu.data     0.013746                       # mshr miss rate for overall accesses
system.cpu.dcache.overall_mshr_miss_rate::.cpu.dcache.prefetcher          inf                       # mshr miss rate for overall accesses
system.cpu.dcache.overall_mshr_miss_rate::total     0.018532                       # mshr miss rate for overall accesses
system.cpu.dcache.demand_avg_mshr_miss_latency::.cpu.data 46269.423321                       # average overall mshr miss latency
system.cpu.dcache.demand_avg_mshr_miss_latency::total 46269.423321                       # average overall mshr miss latency
system.cpu.dcache.overall_avg_mshr_miss_latency::.cpu.data 46269.423321                       # average overall mshr miss latency
system.cpu.dcache.overall_avg_mshr_miss_latency::.cpu.dcache.prefetcher 57127.863057                       # average overall mshr miss latency
system.cpu.dcache.overall_avg_mshr_miss_latency::total 49073.988602                       # average overall mshr miss latency
system.cpu.dcache.replacements                  15995                       # number of replacements
system.cpu.dcache.ReadReq_hits::.cpu.data       628460                       # number of ReadReq hits
system.cpu.dcache.ReadReq_hits::total          628460                       # number of ReadReq hits
system.cpu.dcache.ReadReq_misses::.cpu.data        32381                       # number of ReadReq misses
system.cpu.dcache.ReadReq_misses::total         32381                       # number of ReadReq misses
system.cpu.dcache.ReadReq_miss_latency::.cpu.data   1570479200                       # number of ReadReq miss cycles
system.cpu.dcache.ReadReq_miss_latency::total   1570479200                       # number of ReadReq miss cycles
system.cpu.dcache.ReadReq_accesses::.cpu.data       660841                       # number of ReadReq accesses(hits+misses)
system.cpu.dcache.ReadReq_accesses::total       660841                       # number of ReadReq accesses(hits+misses)
system.cpu.dcache.ReadReq_miss_rate::.cpu.data     0.049000                       # miss rate for ReadReq accesses
system.cpu.dcache.ReadReq_miss_rate::total     0.049000                       # miss rate for ReadReq accesses
system.cpu.dcache.ReadReq_avg_miss_latency::.cpu.data 48500.021618                       # average ReadReq miss latency
system.cpu.dcache.ReadReq_avg_miss_latency::total 48500.021618                       # average ReadReq miss latency
system.cpu.dcache.ReadReq_mshr_hits::.cpu.data        22005                       # number of ReadReq MSHR hits
system.cpu.dcache.ReadReq_mshr_hits::total        22005                       # number of ReadReq MSHR hits
system.cpu.dcache.ReadReq_mshr_misses::.cpu.data        10376                       # number of ReadReq MSHR misses
system.cpu.dcache.ReadReq_mshr_misses::total        10376                       # number of ReadReq MSHR misses
system.cpu.dcache.ReadReq_mshr_miss_latency::.cpu.data    472505600                       # number of ReadReq MSHR miss cycles
system.cpu.dcache.ReadReq_mshr_miss_latency::total    472505600                       # number of ReadReq MSHR miss cycles
system.cpu.dcache.ReadReq_mshr_miss_rate::.cpu.data     0.015701                       # mshr miss rate for ReadReq accesses
system.cpu.dcache.ReadReq_mshr_miss_rate::total     0.015701                       # mshr miss rate for ReadReq accesses
system.cpu.dcache.ReadReq_avg_mshr_miss_latency::.cpu.data 45538.319198                       # average ReadReq mshr miss latency
system.cpu.dcache.ReadReq_avg_mshr_miss_latency::total 45538.319198                       # average ReadReq mshr miss latency
system.cpu.dcache.WriteReq_hits::.cpu.data       255267                       # number of WriteReq hits
system.cpu.dcache.WriteReq_hits::total         255267                       # number of WriteReq hits
system.cpu.dcache.WriteReq_misses::.cpu.data         2282                       # number of WriteReq misses
system.cpu.dcache.WriteReq_misses::total         2282                       # number of WriteReq misses
system.cpu.dcache.WriteReq_miss_latency::.cpu.data    114579200                       # number of WriteReq miss cycles
system.cpu.dcache.WriteReq_miss_latency::total    114579200                       # number of WriteReq miss cycles
system.cpu.dcache.WriteReq_accesses::.cpu.data       257549                       # number of WriteReq accesses(hits+misses)
system.cpu.dcache.WriteReq_accesses::total       257549                       # number of WriteReq accesses(hits+misses)
system.cpu.dcache.WriteReq_miss_rate::.cpu.data     0.008860                       # miss rate for WriteReq accesses
system.cpu.dcache.WriteReq_miss_rate::total     0.008860                       # miss rate for WriteReq accesses
system.cpu.dcache.WriteReq_avg_miss_latency::.cpu.data 50209.991236                       # average WriteReq miss latency
system.cpu.dcache.WriteReq_avg_miss_latency::total 50209.991236                       # average WriteReq miss latency
system.cpu.dcache.WriteReq_mshr_hits::.cpu.data           34                       # number of WriteReq MSHR hits
system.cpu.dcache.WriteReq_mshr_hits::total           34                       # number of WriteReq MSHR hits
system.cpu.dcache.WriteReq_mshr_misses::.cpu.data         2248                       # number of WriteReq MSHR misses
[...]
system.l2cache.demand_mshr_misses::.cpu.data          138                       # number of demand (read+write) MSHR misses
system.l2cache.demand_mshr_misses::.cpu.dcache.prefetcher           32                       # number of demand (read+write) MSHR misses
system.l2cache.demand_mshr_misses::total          425                       # number of demand (read+write) MSHR misses
system.l2cache.overall_mshr_misses::.cpu.inst          255                       # number of overall MSHR misses
system.l2cache.overall_mshr_misses::.cpu.data          138                       # number of overall MSHR misses
system.l2cache.overall_mshr_misses::.cpu.dcache.prefetcher           32                       # number of overall MSHR misses
system.l2cache.overall_mshr_misses::total          425                       # number of overall MSHR misses
system.l2cache.demand_mshr_miss_latency::.cpu.inst     15242400                       # number of demand (read+write) MSHR miss cycles
system.l2cache.demand_mshr_miss_latency::.cpu.data      8012400                       # number of demand (read+write) MSHR miss cycles
system.l2cache.demand_mshr_miss_latency::.cpu.dcache.prefetcher      1870367                       # number of demand (read+write) MSHR miss cycles
system.l2cache.demand_mshr_miss_latency::total     25125167                       # number of demand (read+write) MSHR miss cycles
system.l2cache.overall_mshr_miss_latency::.cpu.inst     15242400                       # number of overall MSHR miss cycles
system.l2cache.overall_mshr_miss_latency::.cpu.data      8012400                       # number of overall MSHR miss cycles
system.l2cache.overall_mshr_miss_latency::.cpu.dcache.prefetcher      1870367                       # number of overall MSHR miss cycles
system.l2cache.overall_mshr_miss_latency::total     25125167                       # number of overall MSHR miss cycles
system.l2cache.demand_mshr_miss_rate::.cpu.inst     0.449735                       # mshr miss rate for demand accesses
system.l2cache.demand_mshr_miss_rate::.cpu.data     0.431250                       # mshr miss rate for demand accesses
system.l2cache.demand_mshr_miss_rate::.cpu.dcache.prefetcher     0.842105                       # mshr miss rate for demand accesses
system.l2cache.demand_mshr_miss_rate::total     0.459459                       # mshr miss rate for demand accesses
system.l2cache.overall_mshr_miss_rate::.cpu.inst     0.449735                       # mshr miss rate for overall accesses
system.l2cache.overall_mshr_miss_rate::.cpu.data     0.431250                       # mshr miss rate for overall accesses
system.l2cache.overall_mshr_miss_rate::.cpu.dcache.prefetcher     0.842105                       # mshr miss rate for overall accesses
system.l2cache.overall_mshr_miss_rate::total     0.459459                       # mshr miss rate for overall accesses
system.l2cache.demand_avg_mshr_miss_latency::.cpu.inst 59774.117647                       # average overall mshr miss latency
system.l2cache.demand_avg_mshr_miss_latency::.cpu.data 58060.869565                       # average overall mshr miss latency
system.l2cache.demand_avg_mshr_miss_latency::.cpu.dcache.prefetcher 58448.968750                       # average overall mshr miss latency
system.l2cache.demand_avg_mshr_miss_latency::total 59118.040000                       # average overall mshr miss latency
system.l2cache.overall_avg_mshr_miss_latency::.cpu.inst 59774.117647                       # average overall mshr miss latency
system.l2cache.overall_avg_mshr_miss_latency::.cpu.data 58060.869565                       # average overall mshr miss latency
system.l2cache.overall_avg_mshr_miss_latency::.cpu.dcache.prefetcher 58448.968750                       # average overall mshr miss latency
system.l2cache.overall_avg_mshr_miss_latency::total 59118.040000                       # average overall mshr miss latency
system.l2cache.replacements                       432                       # number of replacements
system.l2cache.WritebackDirty_hits::.writebacks          149                       # number of WritebackDirty hits
system.l2cache.WritebackDirty_hits::total          149                       # number of WritebackDirty hits
system.l2cache.WritebackDirty_accesses::.writebacks          149                       # number of WritebackDirty accesses(hits+misses)
system.l2cache.WritebackDirty_accesses::total          149                       # number of WritebackDirty accesses(hits+misses)
system.l2cache.CleanEvict_mshr_misses::.writebacks           13                       # number of CleanEvict MSHR misses
system.l2cache.CleanEvict_mshr_misses::total           13                       # number of CleanEvict MSHR misses
system.l2cache.CleanEvict_mshr_miss_rate::.writebacks          inf                       # mshr miss rate for CleanEvict accesses
system.l2cache.CleanEvict_mshr_miss_rate::total          inf                       # mshr miss rate for CleanEvict accesses
system.l2cache.ReadExReq_hits::.cpu.data           44                       # number of ReadExReq hits
system.l2cache.ReadExReq_hits::total               44                       # number of ReadExReq hits
system.l2cache.ReadExReq_misses::.cpu.data           20                       # number of ReadExReq misses
system.l2cache.ReadExReq_misses::total             20                       # number of ReadExReq misses
system.l2cache.ReadExReq_miss_latency::.cpu.data      1350000                       # number of ReadExReq miss cycles
system.l2cache.ReadExReq_miss_latency::total      1350000                       # number of ReadExReq miss cycles
system.l2cache.ReadExReq_accesses::.cpu.data           64                       # number of ReadExReq accesses(hits+misses)
system.l2cache.ReadExReq_accesses::total           64                       # number of ReadExReq accesses(hits+misses)
system.l2cache.ReadExReq_miss_rate::.cpu.data     0.312500                       # miss rate for ReadExReq accesses
system.l2cache.ReadExReq_miss_rate::total     0.312500                       # miss rate for ReadExReq accesses
system.l2cache.ReadExReq_avg_miss_latency::.cpu.data        67500                       # average ReadExReq miss latency
system.l2cache.ReadExReq_avg_miss_latency::total        67500                       # average ReadExReq miss latency
system.l2cache.ReadExReq_mshr_misses::.cpu.data           20                       # number of ReadExReq MSHR misses
system.l2cache.ReadExReq_mshr_misses::total           20                       # number of ReadExReq MSHR misses
system.l2cache.ReadExReq_mshr_miss_latency::.cpu.data      1190000                       # number of ReadExReq MSHR miss cycles
system.l2cache.ReadExReq_mshr_miss_latency::total      1190000                       # number of ReadExReq MSHR miss cycles
system.l2cache.ReadExReq_mshr_miss_rate::.cpu.data     0.312500                       # mshr miss rate for ReadExReq accesses
system.l2cache.ReadExReq_mshr_miss_rate::total     0.312500                       # mshr miss rate for ReadExReq accesses
system.l2cache.ReadExReq_avg_mshr_miss_latency::.cpu.data        59500                       # average ReadExReq mshr miss latency
system.l2cache.ReadExReq_avg_mshr_miss_latency::total        59500                       # average ReadExReq mshr miss latency
system.l2cache.ReadSharedReq_hits::.cpu.inst          312                       # number of ReadSharedReq hits
system.l2cache.ReadSharedReq_hits::.cpu.data          138                       # number of ReadSharedReq hits
system.l2cache.ReadSharedReq_hits::.cpu.dcache.prefetcher            6                       # number of ReadSharedReq hits
system.l2cache.ReadSharedReq_hits::total          456                       # number of ReadSharedReq hits
system.l2cache.ReadSharedReq_misses::.cpu.inst          255                       # number of ReadSharedReq misses
system.l2cache.ReadSharedReq_misses::.cpu.data          118                       # number of ReadSharedReq misses
system.l2cache.ReadSharedReq_misses::.cpu.dcache.prefetcher           32                       # number of ReadSharedReq misses
system.l2cache.ReadSharedReq_misses::total          405                       # number of ReadSharedReq misses
system.l2cache.ReadSharedReq_miss_latency::.cpu.inst     17274400                       # number of ReadSharedReq miss cycles
system.l2cache.ReadSharedReq_miss_latency::.cpu.data      7766400                       # number of ReadSharedReq miss cycles
system.l2cache.ReadSharedReq_miss_latency::.cpu.dcache.prefetcher      2126367                       # number of ReadSharedReq miss cycles
system.l2cache.ReadSharedReq_miss_latency::total     27167167                       # number of ReadSharedReq miss cycles
system.l2cache.ReadSharedReq_accesses::.cpu.inst          567                       # number of ReadSharedReq accesses(hits+misses)
system.l2cache.ReadSharedReq_accesses::.cpu.data          256                       # number of ReadSharedReq accesses(hits+misses)
system.l2cache.ReadSharedReq_accesses::.cpu.dcache.prefetcher           38                       # number of ReadSharedReq accesses(hits+misses)
system.l2cache.ReadSharedReq_accesses::total          861                       # number of ReadSharedReq accesses(hits+misses)
system.l2cache.ReadSharedReq_miss_rate::.cpu.inst     0.449735                       # miss rate for ReadSharedReq accesses
system.l2cache.ReadSharedReq_miss_rate::.cpu.data     0.460938                       # miss rate for ReadSharedReq accesses
system.l2cache.ReadSharedReq_miss_rate::.cpu.dcache.prefetcher     0.842105                       # miss rate for ReadSharedReq accesses
system.l2cache.ReadSharedReq_miss_rate::total     0.470383                       # miss rate for ReadSharedReq accesses
system.l2cache.ReadSharedReq_avg_miss_latency::.cpu.inst 67742.745098                       # average ReadSharedReq miss latency
system.l2cache.ReadSharedReq_avg_miss_latency::.cpu.data 65816.949153                       # average ReadSharedReq miss latency
system.l2cache.ReadSharedReq_avg_miss_latency::.cpu.dcache.prefetcher 66448.968750                       # average ReadSharedReq miss latency
system.l2cache.ReadSharedReq_avg_miss_latency::total 67079.424691                       # average ReadSharedReq miss latency
system.l2cache.ReadSharedReq_mshr_misses::.cpu.inst          255                       # number of ReadSharedReq MSHR misses
system.l2cache.ReadSharedReq_mshr_misses::.cpu.data          118                       # number of ReadSharedReq MSHR misses
system.l2cache.ReadSharedReq_mshr_misses::.cpu.dcache.prefetcher           32                       # number of ReadSharedReq MSHR misses
system.l2cache.ReadSharedReq_mshr_misses::total          405                       # number of ReadSharedReq MSHR misses
system.l2cache.ReadSharedReq_mshr_miss_latency::.cpu.inst     15242400                       # number of ReadSharedReq MSHR miss cycles
system.l2cache.ReadSharedReq_mshr_miss_latency::.cpu.data      6822400                       # number of ReadSharedReq MSHR miss cycles
system.l2cache.ReadSharedReq_mshr_miss_latency::.cpu.dcache.prefetcher      1870367                       # number of ReadSharedReq MSHR miss cycles
system.l2cache.ReadSharedReq_mshr_miss_latency::total     23935167                       # number of ReadSharedReq MSHR miss cycles
system.l2cache.ReadSharedReq_mshr_miss_rate::.cpu.inst     0.449735                       # mshr miss rate for ReadSharedReq accesses
system.l2cache.ReadSharedReq_mshr_miss_rate::.cpu.data     0.460938                       # mshr miss rate for ReadSharedReq accesses
system.l2cache.ReadSharedReq_mshr_miss_rate::.cpu.dcache.prefetcher     0.842105                       # mshr miss rate for ReadSharedReq accesses
system.l2cache.ReadSharedReq_mshr_miss_rate::total     0.470383                       # mshr miss rate for ReadSharedReq accesses
system.l2cache.ReadSharedReq_avg_mshr_miss_latency::.cpu.inst 59774.117647                       # average ReadSharedReq mshr miss latency
system.l2cache.ReadSharedReq_avg_mshr_miss_latency::.cpu.data 57816.949153                       # average ReadSharedReq mshr miss latency
system.l2cache.ReadSharedReq_avg_mshr_miss_latency::.cpu.dcache.prefetcher 58448.968750                       # average ReadSharedReq mshr miss latency
system.l2cache.ReadSharedReq_avg_mshr_miss_latency::total 59099.177778                       # average ReadSharedReq mshr miss latency
system.l2cache.prefetcher.pwrStateResidencyTicks::UNDEFINED    207517600                       # Cumulative time (in ticks) in various power states
system.l2cache.tags.pwrStateResidencyTicks::UNDEFINED    207517600                       # Cumulative time (in ticks) in various power states
system.l2cache.tags.tagsinuse                    4096                       # Cycle average of tags in use
system.l2cache.tags.total_refs                  13951                       # Total number of references to valid blocks.
system.l2cache.tags.sampled_refs                 4528                       # Sample count of references to valid blocks.
system.l2cache.tags.avg_refs                 3.081051                       # Average number of references to valid blocks.
system.l2cache.tags.warmup_cycle                    0                       # Cycle when the warmup percentage was hit.
system.l2cache.tags.occ_blocks::.writebacks    38.876814                       # Average occupied blocks per requestor
system.l2cache.tags.occ_blocks::.cpu.inst  1109.648925                       # Average occupied blocks per requestor
system.l2cache.tags.occ_blocks::.cpu.data  1888.941709                       # Average occupied blocks per requestor
system.l2cache.tags.occ_blocks::.cpu.dcache.prefetcher   924.828271                       # Average occupied blocks per requestor
system.l2cache.tags.occ_blocks::.l2cache.prefetcher   133.704281                       # Average occupied blocks per requestor
system.l2cache.tags.occ_percent::.writebacks     0.009491                       # Average percentage of cache occupancy
system.l2cache.tags.occ_percent::.cpu.inst     0.270910                       # Average percentage of cache occupancy
system.l2cache.tags.occ_percent::.cpu.data     0.461167                       # Average percentage of cache occupancy
system.l2cache.tags.occ_percent::.cpu.dcache.prefetcher     0.225788                       # Average percentage of cache occupancy
system.l2cache.tags.occ_percent::.l2cache.prefetcher     0.032643                       # Average percentage of cache occupancy
system.l2cache.tags.occ_percent::total              1                       # Average percentage of cache occupancy
system.l2cache.tags.occ_task_id_blocks::1022          982                       # Occupied blocks per task id
system.l2cache.tags.occ_task_id_blocks::1024         3114                       # Occupied blocks per task id
system.l2cache.tags.age_task_id_blocks_1022::0            5                       # Occupied blocks per task id
system.l2cache.tags.age_task_id_blocks_1022::1            4                       # Occupied blocks per task id
system.l2cache.tags.age_task_id_blocks_1022::2           27                       # Occupied blocks per task id
system.l2cache.tags.age_task_id_blocks_1022::3          946                       # Occupied blocks per task id
system.l2cache.tags.age_task_id_blocks_1024::0          167                       # Occupied blocks per task id
system.l2cache.tags.age_task_id_blocks_1024::1          111                       # Occupied blocks per task id
system.l2cache.tags.age_task_id_blocks_1024::2          118                       # Occupied blocks per task id
system.l2cache.tags.age_task_id_blocks_1024::3         2718                       # Occupied blocks per task id
system.l2cache.tags.occ_task_id_percent::1022     0.239746                       # Percentage of cache occupancy per task id
system.l2cache.tags.occ_task_id_percent::1024     0.760254                       # Percentage of cache occupancy per task id
system.l2cache.tags.tag_accesses                15216                       # Number of tag accesses
system.l2cache.tags.data_accesses               15216                       # Number of data accesses
system.mem_ctrl.pwrStateResidencyTicks::UNDEFINED    207517600                       # Cumulative time (in ticks) in various power states
system.mem_ctrl.bytes_read::.cpu.inst           16256                       # Number of bytes read from this memory
system.mem_ctrl.bytes_read::.cpu.data            8832                       # Number of bytes read from this memory
system.mem_ctrl.bytes_read::.cpu.dcache.prefetcher         2048                       # Number of bytes read from this memory
system.mem_ctrl.bytes_read::total               27136                       # Number of bytes read from this memory
system.mem_ctrl.bytes_inst_read::.cpu.inst        16256                       # Number of instructions bytes read from this memory
system.mem_ctrl.bytes_inst_read::total          16256                       # Number of instructions bytes read from this memory
system.mem_ctrl.bytes_written::.writebacks         2112                       # Number of bytes written to this memory
system.mem_ctrl.bytes_written::total             2112                       # Number of bytes written to this memory
system.mem_ctrl.num_reads::.cpu.inst              254                       # Number of read requests responded to by this memory
system.mem_ctrl.num_reads::.cpu.data              138                       # Number of read requests responded to by this memory
system.mem_ctrl.num_reads::.cpu.dcache.prefetcher           32                       # Number of read requests responded to by this memory
system.mem_ctrl.num_reads::total                  424                       # Number of read requests responded to by this memory
system.mem_ctrl.num_writes::.writebacks            33                       # Number of write requests responded to by this memory
system.mem_ctrl.num_writes::total                  33                       # Number of write requests responded to by this memory
system.mem_ctrl.bw_read::.cpu.inst           78335524                       # Total read bandwidth from this memory (bytes/s)
system.mem_ctrl.bw_read::.cpu.data           42560245                       # Total read bandwidth from this memory (bytes/s)
system.mem_ctrl.bw_read::.cpu.dcache.prefetcher      9869042                       # Total read bandwidth from this memory (bytes/s)
system.mem_ctrl.bw_read::total              130764812                       # Total read bandwidth from this memory (bytes/s)
system.mem_ctrl.bw_inst_read::.cpu.inst      78335524                       # Instruction read bandwidth from this memory (bytes/s)
system.mem_ctrl.bw_inst_read::total          78335524                       # Instruction read bandwidth from this memory (bytes/s)
system.mem_ctrl.bw_write::.writebacks        10177450                       # Write bandwidth from this memory (bytes/s)
system.mem_ctrl.bw_write::total              10177450                       # Write bandwidth from this memory (bytes/s)
system.mem_ctrl.bw_total::.writebacks        10177450                       # Total bandwidth to/from this memory (bytes/s)
system.mem_ctrl.bw_total::.cpu.inst          78335524                       # Total bandwidth to/from this memory (bytes/s)
system.mem_ctrl.bw_total::.cpu.data          42560245                       # Total bandwidth to/from this memory (bytes/s)
system.mem_ctrl.bw_total::.cpu.dcache.prefetcher      9869042                       # Total bandwidth to/from this memory (bytes/s)
system.mem_ctrl.bw_total::total             140942262                       # Total bandwidth to/from this memory (bytes/s)

---------- End Simulation Statistics   ----------
