
---------- Begin Simulation Statistics ----------
final_tick                                 1168043200                       # Number of ticks from beginning of simulation (restored from checkpoints and never reset)
host_inst_rate                                 170256                       # Simulator instruction rate (inst/s)
host_mem_usage                                4408884                       # Number of bytes of host memory used
host_op_rate                                   299902                       # Simulator op (including micro ops) rate (op/s)
host_seconds                                    13.21                       # Real time elapsed on the host
host_tick_rate                               88420727                       # Simulator tick rate (ticks/s)
sim_freq                                 1000000000000                       # Frequency of simulated ticks
sim_insts                                     2249076                       # Number of instructions simulated
sim_ops                                       3961716                       # Number of ops (including micro ops) simulated
sim_seconds                                  0.001168                       # Number of seconds simulated
sim_ticks                                  1168043200                       # Number of ticks simulated
system.cpu.branchPred.BTBCorrect                    0                       # Number of correct BTB predictions (this stat may not work properly.
system.cpu.branchPred.BTBHitPct              0.000000                       # BTB Hit Percentage
system.cpu.branchPred.BTBHits                       0                       # Number of BTB hits
system.cpu.branchPred.BTBLookups               483776                       # Number of BTB lookups
system.cpu.branchPred.RASInCorrect                 27                       # Number of incorrect RAS predictions.
system.cpu.branchPred.condIncorrect             26357                       # Number of conditional branches incorrect
system.cpu.branchPred.condPredicted            508716                       # Number of conditional branches predicted
system.cpu.branchPred.indirectHits             262823                       # Number of indirect target hits.
system.cpu.branchPred.indirectLookups          483776                       # Number of indirect predictor lookups.
system.cpu.branchPred.indirectMisses           220953                       # Number of indirect misses.
system.cpu.branchPred.lookups                  545074                       # Number of BP lookups
system.cpu.branchPred.usedRAS                   16259                       # Number of times the RAS was used to get a target.
system.cpu.branchPredindirectMispredicted        13994                       # Number of mispredicted indirect branches.
system.cpu.cc_regfile_reads                   2545062                       # number of cc regfile reads
system.cpu.cc_regfile_writes                  2014008                       # number of cc regfile writes
system.cpu.commit.amos                              0                       # Number of atomic instructions committed
system.cpu.commit.branchMispredicts             26481                       # The number of times a branch was mispredicted
system.cpu.commit.branches                     391728                       # Number of branches committed
system.cpu.commit.bw_lim_events                664243                       # number cycles where commit BW limit reached
system.cpu.commit.commitNonSpecStalls             857                       # The number of times commit has been forced to stall to communicate backwards
system.cpu.commit.commitSquashedInsts          934478                       # The number of squashed insts skipped by commit
system.cpu.commit.committedInsts              2249076                       # Number of instructions committed
system.cpu.commit.committedOps                3961716                       # Number of ops (including micro ops) committed
system.cpu.commit.committed_per_cycle::samples      2493702                       # Number of insts commited each cycle
system.cpu.commit.committed_per_cycle::mean     1.588689                       # Number of insts commited each cycle
system.cpu.commit.committed_per_cycle::stdev     1.733547                       # Number of insts commited each cycle
system.cpu.commit.committed_per_cycle::underflows            0      0.00%      0.00% # Number of insts commited each cycle
system.cpu.commit.committed_per_cycle::0      1203705     48.27%     48.27% # Number of insts commited each cycle
system.cpu.commit.committed_per_cycle::1       195442      7.84%     56.11% # Number of insts commited each cycle
system.cpu.commit.committed_per_cycle::2       181634      7.28%     63.39% # Number of insts commited each cycle
system.cpu.commit.committed_per_cycle::3       248678      9.97%     73.36% # Number of insts commited each cycle
system.cpu.commit.committed_per_cycle::4       664243     26.64%    100.00% # Number of insts commited each cycle
system.cpu.commit.committed_per_cycle::overflows            0      0.00%    100.00% # Number of insts commited each cycle
system.cpu.commit.committed_per_cycle::min_value            0                       # Number of insts commited each cycle
system.cpu.commit.committed_per_cycle::max_value            4                       # Number of insts commited each cycle
system.cpu.commit.committed_per_cycle::total      2493702                       # Number of insts commited each cycle
system.cpu.commit.fp_insts                      75825                       # Number of committed floating point instructions.
system.cpu.commit.function_calls                14463                       # Number of function calls committed.
system.cpu.commit.int_insts                   3905599                       # Number of committed integer instructions.
system.cpu.commit.loads                        558395                       # Number of loads committed
system.cpu.commit.membars                           1                       # Number of memory barriers committed
system.cpu.commit.op_class_0::No_OpClass        20808      0.53%      0.53% # Class of committed instruction
system.cpu.commit.op_class_0::IntAlu          3098976     78.22%     78.75% # Class of committed instruction
system.cpu.commit.op_class_0::IntMult             654      0.02%     78.76% # Class of committed instruction
system.cpu.commit.op_class_0::IntDiv            38063      0.96%     79.73% # Class of committed instruction
system.cpu.commit.op_class_0::FloatAdd           2996      0.08%     79.80% # Class of committed instruction
system.cpu.commit.op_class_0::FloatCmp              0      0.00%     79.80% # Class of committed instruction
system.cpu.commit.op_class_0::FloatCvt           1376      0.03%     79.84% # Class of committed instruction
system.cpu.commit.op_class_0::FloatMult             0      0.00%     79.84% # Class of committed instruction
system.cpu.commit.op_class_0::FloatMultAcc            0      0.00%     79.84% # Class of committed instruction
system.cpu.commit.op_class_0::FloatDiv              0      0.00%     79.84% # Class of committed instruction
system.cpu.commit.op_class_0::FloatMisc             0      0.00%     79.84% # Class of committed instruction
system.cpu.commit.op_class_0::FloatSqrt             0      0.00%     79.84% # Class of committed instruction
system.cpu.commit.op_class_0::SimdAdd            6346      0.16%     80.00% # Class of committed instruction
system.cpu.commit.op_class_0::SimdAddAcc            0      0.00%     80.00% # Class of committed instruction
system.cpu.commit.op_class_0::SimdAlu           11415      0.29%     80.28% # Class of committed instruction
system.cpu.commit.op_class_0::SimdCmp               0      0.00%     80.28% # Class of committed instruction
system.cpu.commit.op_class_0::SimdCvt           12434      0.31%     80.60% # Class of committed instruction
system.cpu.commit.op_class_0::SimdMisc           6715      0.17%     80.77% # Class of committed instruction
system.cpu.commit.op_class_0::SimdMult              0      0.00%     80.77% # Class of committed instruction
system.cpu.commit.op_class_0::SimdMultAcc            0      0.00%     80.77% # Class of committed instruction
system.cpu.commit.op_class_0::SimdShift          1273      0.03%     80.80% # Class of committed instruction
system.cpu.commit.op_class_0::SimdShiftAcc            0      0.00%     80.80% # Class of committed instruction
system.cpu.commit.op_class_0::SimdDiv               0      0.00%     80.80% # Class of committed instruction
system.cpu.commit.op_class_0::SimdSqrt              0      0.00%     80.80% # Class of committed instruction
system.cpu.commit.op_class_0::SimdFloatAdd            0      0.00%     80.80% # Class of committed instruction
system.cpu.commit.op_class_0::SimdFloatAlu            0      0.00%     80.80% # Class of committed instruction
system.cpu.commit.op_class_0::SimdFloatCmp            0      0.00%     80.80% # Class of committed instruction
system.cpu.commit.op_class_0::SimdFloatCvt            0      0.00%     80.80% # Class of committed instruction
system.cpu.commit.op_class_0::SimdFloatDiv            0      0.00%     80.80% # Class of committed instruction
system.cpu.commit.op_class_0::SimdFloatMisc            0      0.00%     80.80% # Class of committed instruction
system.cpu.commit.op_class_0::SimdFloatMult            0      0.00%     80.80% # Class of committed instruction
system.cpu.commit.op_class_0::SimdFloatMultAcc            0      0.00%     80.80% # Class of committed instruction
system.cpu.commit.op_class_0::SimdFloatSqrt            0      0.00%     80.80% # Class of committed instruction
system.cpu.commit.op_class_0::SimdReduceAdd            0      0.00%     80.80% # Class of committed instruction
system.cpu.commit.op_class_0::SimdReduceAlu            0      0.00%     80.80% # Class of committed instruction
system.cpu.commit.op_class_0::SimdReduceCmp            0      0.00%     80.80% # Class of committed instruction
system.cpu.commit.op_class_0::SimdFloatReduceAdd            0      0.00%     80.80% # Class of committed instruction
system.cpu.commit.op_class_0::SimdFloatReduceCmp            0      0.00%     80.80% # Class of committed instruction
system.cpu.commit.op_class_0::SimdAes               0      0.00%     80.80% # Class of committed instruction
system.cpu.commit.op_class_0::SimdAesMix            0      0.00%     80.80% # Class of committed instruction
system.cpu.commit.op_class_0::SimdSha1Hash            0      0.00%     80.80% # Class of committed instruction
system.cpu.commit.op_class_0::SimdSha1Hash2            0      0.00%     80.80% # Class of committed instruction
system.cpu.commit.op_class_0::SimdSha256Hash            0      0.00%     80.80% # Class of committed instruction
system.cpu.commit.op_class_0::SimdSha256Hash2            0      0.00%     80.80% # Class of committed instruction
system.cpu.commit.op_class_0::SimdShaSigma2            0      0.00%     80.80% # Class of committed instruction
system.cpu.commit.op_class_0::SimdShaSigma3            0      0.00%     80.80% # Class of committed instruction
system.cpu.commit.op_class_0::SimdPredAlu            0      0.00%     80.80% # Class of committed instruction
system.cpu.commit.op_class_0::MemRead          538507     13.59%     94.39% # Class of committed instruction
system.cpu.commit.op_class_0::MemWrite         189766      4.79%     99.18% # Class of committed instruction
system.cpu.commit.op_class_0::FloatMemRead        19888      0.50%     99.68% # Class of committed instruction
system.cpu.commit.op_class_0::FloatMemWrite        12499      0.32%    100.00% # Class of committed instruction
system.cpu.commit.op_class_0::IprAccess             0      0.00%    100.00% # Class of committed instruction
system.cpu.commit.op_class_0::InstPrefetch            0      0.00%    100.00% # Class of committed instruction
system.cpu.commit.op_class_0::total           3961716                       # Class of committed instruction
system.cpu.commit.refs                         760660                       # Number of memory references committed
system.cpu.commit.swp_count                         0                       # Number of s/w prefetches committed
system.cpu.commit.vec_insts                         0                       # Number of committed Vector instructions.
system.cpu.committedInsts                     2249076                       # Number of Instructions Simulated
system.cpu.committedOps                       3961716                       # Number of Ops (including micro ops) Simulated
system.cpu.cpi                               1.298359                       # CPI: Cycles Per Instruction
system.cpu.cpi_total                         1.298359                       # CPI: Total CPI of All Threads
system.cpu.dcache.prefetcher.num_hwpf_issued         8019                       # number of hwpf issued
system.cpu.dcache.prefetcher.pfBufferHit        33653                       # number of redundant prefetches already in prefetch queue
system.cpu.dcache.prefetcher.pfIdentified        48861                       # number of prefetch candidates identified
system.cpu.dcache.prefetcher.pfInCache              0                       # number of redundant prefetches already in cache/mshr dropped
system.cpu.dcache.prefetcher.pfRemovedFull            0                       # number of prefetches dropped due to prefetch queue size
system.cpu.dcache.prefetcher.pfSpanPage          4651                       # number of prefetches that crossed the page
system.cpu.decode.BlockedCycles               1036470                       # Number of cycles decode is blocked
system.cpu.decode.DecodedInsts                5129101                       # Number of instructions handled by decode
system.cpu.decode.IdleCycles                   335732                       # Number of cycles decode is idle
system.cpu.decode.RunCycles                   1262617                       # Number of cycles decode is running
system.cpu.decode.SquashCycles                  26543                       # Number of cycles decode is squashing
system.cpu.decode.UnblockCycles                 88260                       # Number of cycles decode is unblocking
system.cpu.dtb.rdAccesses                      645342                       # TLB accesses on read requests
system.cpu.dtb.rdMisses                          2126                       # TLB misses on read requests
system.cpu.dtb.wrAccesses                      222314                       # TLB accesses on write requests
system.cpu.dtb.wrMisses                           148                       # TLB misses on write requests
system.cpu.fetch.Branches                      545074                       # Number of branches that fetch encountered
system.cpu.fetch.CacheLines                    276875                       # Number of cache lines fetched
system.cpu.fetch.Cycles                       2348722                       # Number of cycles fetch has run and was not squashing or blocked
system.cpu.fetch.IcacheSquashes                  5685                       # Number of outstanding Icache misses that were squashed
system.cpu.fetch.IcacheWaitRetryStallCycles           27                       # Number of stall cycles due to full MSHR
system.cpu.fetch.Insts                        3052710                       # Number of instructions fetch has processed
system.cpu.fetch.MiscStallCycles                  135                       # Number of cycles fetch has spent waiting on interrupts, or bad addresses, or out of MSHRs
system.cpu.fetch.PendingQuiesceStallCycles            9                       # Number of stall cycles due to pending quiesce instructions
system.cpu.fetch.PendingTrapStallCycles           972                       # Number of stall cycles due to pending traps
system.cpu.fetch.SquashCycles                   53086                       # Number of cycles fetch has spent squashing
system.cpu.fetch.branchRate                  0.186662                       # Number of branch fetches per cycle
system.cpu.fetch.icacheStallCycles             373214                       # Number of cycles fetch is stalled on an Icache miss
system.cpu.fetch.predictedBranches             279082                       # Number of branches that fetch has predicted taken
system.cpu.fetch.rate                        1.045410                       # Number of inst fetches per cycle
system.cpu.fetch.rateDist::samples            2749622                       # Number of instructions fetched each cycle (Total)
system.cpu.fetch.rateDist::mean              1.970128                       # Number of instructions fetched each cycle (Total)
system.cpu.fetch.rateDist::stdev             1.926638                       # Number of instructions fetched each cycle (Total)
system.cpu.fetch.rateDist::underflows               0      0.00%      0.00% # Number of instructions fetched each cycle (Total)
system.cpu.fetch.rateDist::0                  1276737     46.43%     46.43% # Number of instructions fetched each cycle (Total)
system.cpu.fetch.rateDist::1                    83231      3.03%     49.46% # Number of instructions fetched each cycle (Total)
system.cpu.fetch.rateDist::2                    67141      2.44%     51.90% # Number of instructions fetched each cycle (Total)
system.cpu.fetch.rateDist::3                    90457      3.29%     55.19% # Number of instructions fetched each cycle (Total)
system.cpu.fetch.rateDist::4                  1232056     44.81%    100.00% # Number of instructions fetched each cycle (Total)
system.cpu.fetch.rateDist::overflows                0      0.00%    100.00% # Number of instructions fetched each cycle (Total)
system.cpu.fetch.rateDist::min_value                0                       # Number of instructions fetched each cycle (Total)
system.cpu.fetch.rateDist::max_value                4                       # Number of instructions fetched each cycle (Total)
system.cpu.fetch.rateDist::total              2749622                       # Number of instructions fetched each cycle (Total)
system.cpu.fp_regfile_reads                    122889                       # number of floating regfile reads
system.cpu.fp_regfile_writes                    67768                       # number of floating regfile writes
system.cpu.fuPool.fu_ticks_busy::IntALU(0)    236872800                       # Total ticks fu was busy
system.cpu.fuPool.fu_ticks_busy::IntALU(1)    236872400                       # Total ticks fu was busy
system.cpu.fuPool.fu_ticks_busy::IntALU(2)    236872400                       # Total ticks fu was busy
system.cpu.fuPool.fu_ticks_busy::IntALU(3)    236872400                       # Total ticks fu was busy
system.cpu.fuPool.fu_ticks_busy::IntALU(4)    236872400                       # Total ticks fu was busy
system.cpu.fuPool.fu_ticks_busy::IntALU(5)    236872400                       # Total ticks fu was busy
system.cpu.fuPool.fu_ticks_busy::IntMultDiv(0)      8565600                       # Total ticks fu was busy
system.cpu.fuPool.fu_ticks_busy::IntMultDiv(1)      8565600                       # Total ticks fu was busy
system.cpu.fuPool.fu_ticks_busy::FP_ALU(0)       602400                       # Total ticks fu was busy
system.cpu.fuPool.fu_ticks_busy::FP_ALU(1)       602400                       # Total ticks fu was busy
system.cpu.fuPool.fu_ticks_busy::FP_ALU(2)       601600                       # Total ticks fu was busy
system.cpu.fuPool.fu_ticks_busy::FP_ALU(3)       601600                       # Total ticks fu was busy
system.cpu.fuPool.fu_ticks_busy::FP_MultDiv(0)            0                       # Total ticks fu was busy
system.cpu.fuPool.fu_ticks_busy::FP_MultDiv(1)            0                       # Total ticks fu was busy
system.cpu.fuPool.fu_ticks_busy::SIMD_Unit(0)      4502800                       # Total ticks fu was busy
system.cpu.fuPool.fu_ticks_busy::SIMD_Unit(1)      4488800                       # Total ticks fu was busy
system.cpu.fuPool.fu_ticks_busy::SIMD_Unit(2)      4690400                       # Total ticks fu was busy
system.cpu.fuPool.fu_ticks_busy::SIMD_Unit(3)      4704000                       # Total ticks fu was busy
system.cpu.fuPool.fu_ticks_busy::PredALU(0)            0                       # Total ticks fu was busy
system.cpu.fuPool.fu_ticks_busy::RdWrPort(0)     88366800                       # Total ticks fu was busy
system.cpu.fuPool.fu_ticks_busy::RdWrPort(1)     88383200                       # Total ticks fu was busy
system.cpu.fuPool.fu_ticks_busy::RdWrPort(2)     88429600                       # Total ticks fu was busy
system.cpu.fuPool.fu_ticks_busy::RdWrPort(3)     88342400                       # Total ticks fu was busy
system.cpu.fuPool.fu_ticks_busy::IprPort(0)            0                       # Total ticks fu was busy
system.cpu.fuPool.fu_ticks_busy::total     1812682000                       # Total ticks fu was busy
system.cpu.icache.prefetcher.num_hwpf_issued            0                       # number of hwpf issued
system.cpu.icache.prefetcher.pfBufferHit            0                       # number of redundant prefetches already in prefetch queue
system.cpu.icache.prefetcher.pfIdentified            0                       # number of prefetch candidates identified
system.cpu.icache.prefetcher.pfInCache              0                       # number of redundant prefetches already in cache/mshr dropped
system.cpu.icache.prefetcher.pfRemovedFull            0                       # number of prefetches dropped due to prefetch queue size
system.cpu.icache.prefetcher.pfSpanPage             0                       # number of prefetches that crossed the page
system.cpu.idleCycles                          170487                       # Total number of cycles that the CPU has spent unscheduled due to idling
system.cpu.iew.branchMispredicts                31135                       # Number of branch mispredicts detected at execute
system.cpu.iew.exec_branches                   423702                       # Number of branches executed
system.cpu.iew.exec_nop                             0                       # number of nop insts executed
system.cpu.iew.exec_rate                     1.548008                       # Inst execution rate
system.cpu.iew.exec_refs                       869182                       # number of memory reference insts executed
system.cpu.iew.exec_stores                     222299                       # Number of stores executed
system.cpu.iew.exec_swp                             0                       # number of swp insts executed
system.cpu.iew.iewBlockCycles                  704614                       # Number of cycles IEW is blocking
system.cpu.iew.iewDispLoadInsts                681560                       # Number of dispatched load instructions
system.cpu.iew.iewDispNonSpecInsts               1462                       # Number of dispatched non-speculative instructions
system.cpu.iew.iewDispSquashedInsts               595                       # Number of squashed instructions skipped by dispatch
system.cpu.iew.iewDispStoreInsts               235149                       # Number of dispatched store instructions
system.cpu.iew.iewDispatchedInsts             4896156                       # Number of instructions dispatched to IQ
system.cpu.iew.iewExecLoadInsts                646883                       # Number of load instructions executed
system.cpu.iew.iewExecSquashedInsts             38910                       # Number of squashed instructions skipped in execute
system.cpu.iew.iewExecutedInsts               4520353                       # Number of executed instructions
system.cpu.iew.iewIQFullEvents                   3300                       # Number of times the IQ has become full, causing a stall
system.cpu.iew.iewIdleCycles                        0                       # Number of cycles IEW is idle
system.cpu.iew.iewLSQFullEvents                  9157                       # Number of times the LSQ has become full, causing a stall
system.cpu.iew.iewSquashCycles                  26543                       # Number of cycles IEW is squashing
system.cpu.iew.iewUnblockCycles                 15337                       # Number of cycles IEW is unblocking
system.cpu.iew.lsq.thread0.blockedLoads             0                       # Number of blocked loads due to partial load-store forwarding
system.cpu.iew.lsq.thread0.cacheBlocked           574                       # Number of times an access to memory failed due to the cache being blocked
system.cpu.iew.lsq.thread0.forwLoads            40955                       # Number of loads that had data forwarded from stores
system.cpu.iew.lsq.thread0.ignoredResponses          286                       # Number of memory responses ignored because the instruction is squashed
system.cpu.iew.lsq.thread0.invAddrLoads             0                       # Number of loads ignored due to an invalid address
system.cpu.iew.lsq.thread0.invAddrSwpfs             0                       # Number of software prefetches ignored due to an invalid address
system.cpu.iew.lsq.thread0.memOrderViolation           72                       # Number of memory ordering violations
system.cpu.iew.lsq.thread0.rescheduledLoads            0                       # Number of loads that were rescheduled
system.cpu.iew.lsq.thread0.squashedLoads       123163                       # Number of loads squashed
system.cpu.iew.lsq.thread0.squashedStores        32883                       # Number of stores squashed
system.cpu.iew.memOrderViolationEvents             72                       # Number of memory order violations
system.cpu.iew.predictedNotTakenIncorrect        22636                       # Number of branches that were predicted not taken incorrectly
system.cpu.iew.predictedTakenIncorrect           8499                       # Number of branches that were predicted taken incorrectly
system.cpu.iew.wb_consumers                   6161273                       # num instructions consuming a value
system.cpu.iew.wb_count                       4496701                       # cumulative count of insts written-back
system.cpu.iew.wb_fanout                     0.573847                       # average fanout of values written-back
system.cpu.iew.wb_producers                   3535626                       # num instructions producing a value
system.cpu.iew.wb_rate                       1.539909                       # insts written-back per cycle
system.cpu.iew.wb_sent                        4504479                       # cumulative count of insts sent to commit
system.cpu.int_regfile_reads                  6992691                       # number of integer regfile reads
system.cpu.int_regfile_writes                 3859385                       # number of integer regfile writes
system.cpu.ipc                               0.770203                       # IPC: Instructions Per Cycle
system.cpu.ipc_total                         0.770203                       # IPC: Total IPC of All Threads
system.cpu.iq.FU_type_0::No_OpClass             27558      0.60%      0.60% # Type of FU issued
system.cpu.iq.FU_type_0::IntAlu               3553088     77.93%     78.54% # Type of FU issued
system.cpu.iq.FU_type_0::IntMult                  678      0.01%     78.55% # Type of FU issued
system.cpu.iq.FU_type_0::IntDiv                 42150      0.92%     79.47% # Type of FU issued
system.cpu.iq.FU_type_0::FloatAdd                4574      0.10%     79.58% # Type of FU issued
system.cpu.iq.FU_type_0::FloatCmp                   0      0.00%     79.58% # Type of FU issued
system.cpu.iq.FU_type_0::FloatCvt                1446      0.03%     79.61% # Type of FU issued
system.cpu.iq.FU_type_0::FloatMult                  0      0.00%     79.61% # Type of FU issued
system.cpu.iq.FU_type_0::FloatMultAcc               0      0.00%     79.61% # Type of FU issued
system.cpu.iq.FU_type_0::FloatDiv                   0      0.00%     79.61% # Type of FU issued
system.cpu.iq.FU_type_0::FloatMisc                  0      0.00%     79.61% # Type of FU issued
system.cpu.iq.FU_type_0::FloatSqrt                  0      0.00%     79.61% # Type of FU issued
system.cpu.iq.FU_type_0::SimdAdd                 6979      0.15%     79.76% # Type of FU issued
system.cpu.iq.FU_type_0::SimdAddAcc                 0      0.00%     79.76% # Type of FU issued
system.cpu.iq.FU_type_0::SimdAlu                15130      0.33%     80.09% # Type of FU issued
system.cpu.iq.FU_type_0::SimdCmp                    0      0.00%     80.09% # Type of FU issued
system.cpu.iq.FU_type_0::SimdCvt                14180      0.31%     80.40% # Type of FU issued
system.cpu.iq.FU_type_0::SimdMisc                7300      0.16%     80.56% # Type of FU issued
system.cpu.iq.FU_type_0::SimdMult                   0      0.00%     80.56% # Type of FU issued
system.cpu.iq.FU_type_0::SimdMultAcc                0      0.00%     80.56% # Type of FU issued
system.cpu.iq.FU_type_0::SimdShift               2376      0.05%     80.62% # Type of FU issued
system.cpu.iq.FU_type_0::SimdShiftAcc               0      0.00%     80.62% # Type of FU issued
system.cpu.iq.FU_type_0::SimdDiv                    0      0.00%     80.62% # Type of FU issued
system.cpu.iq.FU_type_0::SimdSqrt                   0      0.00%     80.62% # Type of FU issued
system.cpu.iq.FU_type_0::SimdFloatAdd               0      0.00%     80.62% # Type of FU issued
system.cpu.iq.FU_type_0::SimdFloatAlu               0      0.00%     80.62% # Type of FU issued
system.cpu.iq.FU_type_0::SimdFloatCmp               0      0.00%     80.62% # Type of FU issued
system.cpu.iq.FU_type_0::SimdFloatCvt               0      0.00%     80.62% # Type of FU issued
system.cpu.iq.FU_type_0::SimdFloatDiv               0      0.00%     80.62% # Type of FU issued
system.cpu.iq.FU_type_0::SimdFloatMisc              0      0.00%     80.62% # Type of FU issued
system.cpu.iq.FU_type_0::SimdFloatMult              0      0.00%     80.62% # Type of FU issued
system.cpu.iq.FU_type_0::SimdFloatMultAcc            0      0.00%     80.62% # Type of FU issued
system.cpu.iq.FU_type_0::SimdFloatSqrt              0      0.00%     80.62% # Type of FU issued
system.cpu.iq.FU_type_0::SimdReduceAdd              0      0.00%     80.62% # Type of FU issued
system.cpu.iq.FU_type_0::SimdReduceAlu              0      0.00%     80.62% # Type of FU issued
system.cpu.iq.FU_type_0::SimdReduceCmp              0      0.00%     80.62% # Type of FU issued
system.cpu.iq.FU_type_0::SimdFloatReduceAdd            0      0.00%     80.62% # Type of FU issued
system.cpu.iq.FU_type_0::SimdFloatReduceCmp            0      0.00%     80.62% # Type of FU issued
system.cpu.iq.FU_type_0::SimdAes                    0      0.00%     80.62% # Type of FU issued
system.cpu.iq.FU_type_0::SimdAesMix                 0      0.00%     80.62% # Type of FU issued
system.cpu.iq.FU_type_0::SimdSha1Hash               0      0.00%     80.62% # Type of FU issued
system.cpu.iq.FU_type_0::SimdSha1Hash2              0      0.00%     80.62% # Type of FU issued
system.cpu.iq.FU_type_0::SimdSha256Hash             0      0.00%     80.62% # Type of FU issued
system.cpu.iq.FU_type_0::SimdSha256Hash2            0      0.00%     80.62% # Type of FU issued
system.cpu.iq.FU_type_0::SimdShaSigma2              0      0.00%     80.62% # Type of FU issued
system.cpu.iq.FU_type_0::SimdShaSigma3              0      0.00%     80.62% # Type of FU issued
system.cpu.iq.FU_type_0::SimdPredAlu                0      0.00%     80.62% # Type of FU issued
system.cpu.iq.FU_type_0::MemRead               632310     13.87%     94.48% # Type of FU issued
system.cpu.iq.FU_type_0::MemWrite              211756      4.64%     99.13% # Type of FU issued
system.cpu.iq.FU_type_0::FloatMemRead           26004      0.57%     99.70% # Type of FU issued
system.cpu.iq.FU_type_0::FloatMemWrite          13737      0.30%    100.00% # Type of FU issued
system.cpu.iq.FU_type_0::IprAccess                  0      0.00%    100.00% # Type of FU issued
system.cpu.iq.FU_type_0::InstPrefetch               0      0.00%    100.00% # Type of FU issued
system.cpu.iq.FU_type_0::total                4559266                       # Type of FU issued
system.cpu.iq.fp_alu_accesses                   92809                       # Number of floating point alu accesses
system.cpu.iq.fp_inst_queue_reads              186975                       # Number of floating instruction queue reads
system.cpu.iq.fp_inst_queue_wakeup_accesses        89166                       # Number of floating instruction queue wakeup accesses
system.cpu.iq.fp_inst_queue_writes             135901                       # Number of floating instruction queue writes
system.cpu.iq.fu_busy_cnt                           0                       # FU busy when requested
system.cpu.iq.fu_busy_rate                          0                       # FU busy rate (busy events/executed inst)
system.cpu.iq.fu_full::No_OpClass                   0                       # attempts to use FU when none available
system.cpu.iq.fu_full::IntAlu                       0                       # attempts to use FU when none available
system.cpu.iq.fu_full::IntMult                      0                       # attempts to use FU when none available
system.cpu.iq.fu_full::IntDiv                       0                       # attempts to use FU when none available
system.cpu.iq.fu_full::FloatAdd                     0                       # attempts to use FU when none available
system.cpu.iq.fu_full::FloatCmp                     0                       # attempts to use FU when none available
system.cpu.iq.fu_full::FloatCvt                     0                       # attempts to use FU when none available
system.cpu.iq.fu_full::FloatMult                    0                       # attempts to use FU when none available
system.cpu.iq.fu_full::FloatMultAcc                 0                       # attempts to use FU when none available
system.cpu.iq.fu_full::FloatDiv                     0                       # attempts to use FU when none available
system.cpu.iq.fu_full::FloatMisc                    0                       # attempts to use FU when none available
system.cpu.iq.fu_full::FloatSqrt                    0                       # attempts to use FU when none available
system.cpu.iq.fu_full::SimdAdd                      0                       # attempts to use FU when none available
system.cpu.iq.fu_full::SimdAddAcc                   0                       # attempts to use FU when none available
system.cpu.iq.fu_full::SimdAlu                      0                       # attempts to use FU when none available
system.cpu.iq.fu_full::SimdCmp                      0                       # attempts to use FU when none available
system.cpu.iq.fu_full::SimdCvt                      0                       # attempts to use FU when none available
system.cpu.iq.fu_full::SimdMisc                     0                       # attempts to use FU when none available
system.cpu.iq.fu_full::SimdMult                     0                       # attempts to use FU when none available
system.cpu.iq.fu_full::SimdMultAcc                  0                       # attempts to use FU when none available
system.cpu.iq.fu_full::SimdShift                    0                       # attempts to use FU when none available
system.cpu.iq.fu_full::SimdShiftAcc                 0                       # attempts to use FU when none available
system.cpu.iq.fu_full::SimdDiv                      0                       # attempts to use FU when none available
system.cpu.iq.fu_full::SimdSqrt                     0                       # attempts to use FU when none available
system.cpu.iq.fu_full::SimdFloatAdd                 0                       # attempts to use FU when none available
system.cpu.iq.fu_full::SimdFloatAlu                 0                       # attempts to use FU when none available
system.cpu.iq.fu_full::SimdFloatCmp                 0                       # attempts to use FU when none available
system.cpu.iq.fu_full::SimdFloatCvt                 0                       # attempts to use FU when none available
system.cpu.iq.fu_full::SimdFloatDiv                 0                       # attempts to use FU when none available
system.cpu.iq.fu_full::SimdFloatMisc                0                       # attempts to use FU when none available
system.cpu.iq.fu_full::SimdFloatMult                0                       # attempts to use FU when none available
system.cpu.iq.fu_full::SimdFloatMultAcc             0                       # attempts to use FU when none available
system.cpu.iq.fu_full::SimdFloatSqrt                0                       # attempts to use FU when none available
system.cpu.iq.fu_full::SimdReduceAdd                0                       # attempts to use FU when none available
system.cpu.iq.fu_full::SimdReduceAlu                0                       # attempts to use FU when none available
system.cpu.iq.fu_full::SimdReduceCmp                0                       # attempts to use FU when none available
system.cpu.iq.fu_full::SimdFloatReduceAdd            0                       # attempts to use FU when none available
system.cpu.iq.fu_full::SimdFloatReduceCmp            0                       # attempts to use FU when none available
system.cpu.iq.fu_full::SimdAes                      0                       # attempts to use FU when none available
system.cpu.iq.fu_full::SimdAesMix                   0                       # attempts to use FU when none available
system.cpu.iq.fu_full::SimdSha1Hash                 0                       # attempts to use FU when none available
system.cpu.iq.fu_full::SimdSha1Hash2                0                       # attempts to use FU when none available
system.cpu.iq.fu_full::SimdSha256Hash               0                       # attempts to use FU when none available
system.cpu.iq.fu_full::SimdSha256Hash2              0                       # attempts to use FU when none available
system.cpu.iq.fu_full::SimdShaSigma2                0                       # attempts to use FU when none available
system.cpu.iq.fu_full::SimdShaSigma3                0                       # attempts to use FU when none available
system.cpu.iq.fu_full::SimdPredAlu                  0                       # attempts to use FU when none available
system.cpu.iq.fu_full::MemRead                      0                       # attempts to use FU when none available
system.cpu.iq.fu_full::MemWrite                     0                       # attempts to use FU when none available
system.cpu.iq.fu_full::FloatMemRead                 0                       # attempts to use FU when none available
system.cpu.iq.fu_full::FloatMemWrite                0                       # attempts to use FU when none available
system.cpu.iq.fu_full::IprAccess                    0                       # attempts to use FU when none available
system.cpu.iq.fu_full::InstPrefetch                 0                       # attempts to use FU when none available
system.cpu.iq.int_alu_accesses                4438899                       # Number of integer alu accesses
system.cpu.iq.int_inst_queue_reads           11700661                       # Number of integer instruction queue reads
system.cpu.iq.int_inst_queue_wakeup_accesses      4407535                       # Number of integer instruction queue wakeup accesses
system.cpu.iq.int_inst_queue_writes           5694755                       # Number of integer instruction queue writes
system.cpu.iq.iqInstsAdded                    4893705                       # Number of instructions added to the IQ (excludes non-spec)
system.cpu.iq.iqInstsIssued                   4559266                       # Number of instructions issued
system.cpu.iq.iqNonSpecInstsAdded                2451                       # Number of non-speculative instructions added to the IQ
system.cpu.iq.iqSquashedInstsExamined          934429                       # Number of squashed instructions iterated over during squash; mainly for profiling
system.cpu.iq.iqSquashedInstsIssued             19485                       # Number of squashed instructions issued
system.cpu.iq.iqSquashedNonSpecRemoved           1594                       # Number of squashed non-spec instructions that were removed
system.cpu.iq.iqSquashedOperandsExamined      1392363                       # Number of squashed operands that are examined and possibly removed from graph
system.cpu.iq.issued_per_cycle::samples       2749622                       # Number of insts issued each cycle
system.cpu.iq.issued_per_cycle::mean         1.658143                       # Number of insts issued each cycle
system.cpu.iq.issued_per_cycle::stdev        1.668897                       # Number of insts issued each cycle
system.cpu.iq.issued_per_cycle::underflows            0      0.00%      0.00% # Number of insts issued each cycle
system.cpu.iq.issued_per_cycle::0             1207306     43.91%     43.91% # Number of insts issued each cycle
system.cpu.iq.issued_per_cycle::1              191994      6.98%     50.89% # Number of insts issued each cycle
system.cpu.iq.issued_per_cycle::2              329586     11.99%     62.88% # Number of insts issued each cycle
system.cpu.iq.issued_per_cycle::3              374844     13.63%     76.51% # Number of insts issued each cycle
system.cpu.iq.issued_per_cycle::4              645892     23.49%    100.00% # Number of insts issued each cycle
system.cpu.iq.issued_per_cycle::overflows            0      0.00%    100.00% # Number of insts issued each cycle
system.cpu.iq.issued_per_cycle::min_value            0                       # Number of insts issued each cycle
system.cpu.iq.issued_per_cycle::max_value            4                       # Number of insts issued each cycle
system.cpu.iq.issued_per_cycle::total         2749622                       # Number of insts issued each cycle
system.cpu.iq.rate                           1.561334                       # Inst issue rate
system.cpu.iq.vec_alu_accesses                      0                       # Number of vector alu accesses
system.cpu.iq.vec_inst_queue_reads                  0                       # Number of vector instruction queue reads
system.cpu.iq.vec_inst_queue_wakeup_accesses            0                       # Number of vector instruction queue wakeup accesses
system.cpu.iq.vec_inst_queue_writes                 0                       # Number of vector instruction queue writes
system.cpu.itb.rdAccesses                           0                       # TLB accesses on read requests
system.cpu.itb.rdMisses                             0                       # TLB misses on read requests
system.cpu.itb.wrAccesses                      277019                       # TLB accesses on write requests
system.cpu.itb.wrMisses                           406                       # TLB misses on write requests
system.cpu.memDep0.conflictingLoads             13513                       # Number of conflicting loads.
system.cpu.memDep0.conflictingStores             5485                       # Number of conflicting stores.
system.cpu.memDep0.insertedLoads               681560                       # Number of loads inserted to the mem dependence unit.
system.cpu.memDep0.insertedStores              235149                       # Number of stores inserted to the mem dependence unit.
system.cpu.misc_regfile_reads                 1752988                       # number of misc regfile reads
system.cpu.misc_regfile_writes                    774                       # number of misc regfile writes
system.cpu.numCycles                          2920109                       # number of cpu cycles simulated
system.cpu.numWorkItemsCompleted                    0                       # number of work items this cpu completed
system.cpu.numWorkItemsStarted                      0                       # number of work items this cpu started
system.cpu.process.numSyscalls                     82                       # Number of system calls
system.cpu.rename.BlockCycles                  849887                       # Number of cycles rename is blocking
system.cpu.rename.CommittedMaps               5287233                       # Number of HB maps that are committed
system.cpu.rename.FullRegisterEvents               27                       # Number of times there has been no free registers
system.cpu.rename.IQFullEvents                  42924                       # Number of times rename has blocked due to IQ full
system.cpu.rename.IdleCycles                   386806                       # Number of cycles rename is idle
system.cpu.rename.LQFullEvents                  16592                       # Number of times rename has blocked due to LQ full
system.cpu.rename.ROBFullEvents                  4570                       # Number of times rename has blocked due to ROB full
system.cpu.rename.RenameLookups              13144475                       # Number of register rename lookups that rename has made
system.cpu.rename.RenamedInsts                5046344                       # Number of instructions processed by rename
system.cpu.rename.RenamedOperands             6744746                       # Number of destination operands rename has renamed
system.cpu.rename.RunCycles                   1291574                       # Number of cycles rename is running
system.cpu.rename.SQFullEvents                  76020                       # Number of times rename has blocked due to SQ full
system.cpu.rename.SquashCycles                  26543                       # Number of cycles rename is squashing
system.cpu.rename.UnblockCycles                172390                       # Number of cycles rename is unblocking
system.cpu.rename.UndoneMaps                  1457490                       # Number of HB maps that are undone due to squashing
system.cpu.rename.fp_rename_lookups            160121                       # Number of floating rename lookups
system.cpu.rename.int_rename_lookups          7990062                       # Number of integer rename lookups
system.cpu.rename.serializeStallCycles          22422                       # count of cycles rename stalled for serializing inst
system.cpu.rename.serializingInsts               1005                       # count of serializing insts renamed
system.cpu.rename.skidInsts                    200054                       # count of insts added to the skid buffer
system.cpu.rename.tempSerializingInsts           1067                       # count of temporary serializing insts renamed
system.cpu.rob.rob_reads                      6725653                       # The number of ROB reads
system.cpu.rob.rob_writes                    10049281                       # The number of ROB writes
system.cpu.timesIdled                            1745                       # Number of times that the entire CPU went into an idle state and unscheduled itself
system.l2bus.snoop_filter.hit_multi_requests           19                       # Number of requests hitting in the snoop filter with multiple (>1) holders of the requested data.
system.l2bus.snoop_filter.hit_multi_snoops            1                       # Number of snoops hitting in the snoop filter with multiple (>1) holders of the requested data.
system.l2bus.snoop_filter.hit_single_requests        18756                       # Number of requests hitting in the snoop filter with a single holder of the requested data.
system.l2bus.snoop_filter.hit_single_snoops          430                       # Number of snoops hitting in the snoop filter with a single holder of the requested data.
system.l2bus.snoop_filter.tot_requests          38786                       # Total number of requests made to the snoop filter.
system.l2bus.snoop_filter.tot_snoops              431                       # Total number of snoops made to the snoop filter.
system.l2cache.prefetcher.num_hwpf_issued          640                       # number of hwpf issued
system.l2cache.prefetcher.pfBufferHit               0                       # number of redundant prefetches already in prefetch queue
system.l2cache.prefetcher.pfIdentified            640                       # number of prefetch candidates identified
system.l2cache.prefetcher.pfInCache                 0                       # number of redundant prefetches already in cache/mshr dropped
system.l2cache.prefetcher.pfRemovedFull             0                       # number of prefetches dropped due to prefetch queue size
system.l2cache.prefetcher.pfSpanPage               92                       # number of prefetches that crossed the page
system.membus.snoop_filter.hit_multi_requests            0                       # Number of requests hitting in the snoop filter with multiple (>1) holders of the requested data.
system.membus.snoop_filter.hit_multi_snoops            0                       # Number of snoops hitting in the snoop filter with multiple (>1) holders of the requested data.
system.membus.snoop_filter.hit_single_requests         9469                       # Number of requests hitting in the snoop filter with a single holder of the requested data.
system.membus.snoop_filter.hit_single_snoops            0                       # Number of snoops hitting in the snoop filter with a single holder of the requested data.
system.membus.snoop_filter.tot_requests         23062                       # Total number of requests made to the snoop filter.
system.membus.snoop_filter.tot_snoops               0                       # Total number of snoops made to the snoop filter.
system.membus.pwrStateResidencyTicks::UNDEFINED   1168043200                       # Cumulative time (in ticks) in various power states
system.membus.trans_dist::ReadResp              12276                       # Transaction distribution
system.membus.trans_dist::WritebackDirty         1346                       # Transaction distribution
system.membus.trans_dist::CleanEvict             8123                       # Transaction distribution
system.membus.trans_dist::ReadExReq              1317                       # Transaction distribution
system.membus.trans_dist::ReadExResp             1317                       # Transaction distribution
system.membus.trans_dist::ReadSharedReq         12276                       # Transaction distribution
system.membus.pkt_count_system.l2cache.mem_side::system.mem_ctrl.port        36655                       # Packet count per connected master and slave (bytes)
system.membus.pkt_count_system.l2cache.mem_side::total        36655                       # Packet count per connected master and slave (bytes)
system.membus.pkt_count::total                  36655                       # Packet count per connected master and slave (bytes)
system.membus.pkt_size_system.l2cache.mem_side::system.mem_ctrl.port       956096                       # Cumulative packet size per connected master and slave (bytes)
system.membus.pkt_size_system.l2cache.mem_side::total       956096                       # Cumulative packet size per connected master and slave (bytes)
system.membus.pkt_size::total                  956096                       # Cumulative packet size per connected master and slave (bytes)
system.membus.snoops                                0                       # Total snoops (count)
system.membus.snoopTraffic                          0                       # Total snoop traffic (bytes)
system.membus.snoop_fanout::samples             13593                       # Request fanout histogram
system.membus.snoop_fanout::mean                    0                       # Request fanout histogram
system.membus.snoop_fanout::stdev                   0                       # Request fanout histogram
system.membus.snoop_fanout::underflows              0      0.00%      0.00% # Request fanout histogram
system.membus.snoop_fanout::0                   13593    100.00%    100.00% # Request fanout histogram
system.membus.snoop_fanout::1                       0      0.00%    100.00% # Request fanout histogram
system.membus.snoop_fanout::overflows               0      0.00%    100.00% # Request fanout histogram
system.membus.snoop_fanout::min_value               0                       # Request fanout histogram
system.membus.snoop_fanout::max_value               0                       # Request fanout histogram
system.membus.snoop_fanout::total               13593                       # Request fanout histogram
system.membus.reqLayer2.occupancy            11399008                       # Layer occupancy (ticks)
system.membus.reqLayer2.utilization               1.0                       # Layer utilization (%)
system.membus.respLayer0.occupancy           29509892                       # Layer occupancy (ticks)
system.membus.respLayer0.utilization              2.5                       # Layer utilization (%)
system.l2bus.pwrStateResidencyTicks::UNDEFINED   1168043200                       # Cumulative time (in ticks) in various power states
system.l2bus.trans_dist::ReadResp               17992                       # Transaction distribution
system.l2bus.trans_dist::WritebackDirty          4139                       # Transaction distribution
system.l2bus.trans_dist::CleanEvict             24171                       # Transaction distribution
system.l2bus.trans_dist::HardPFReq                937                       # Transaction distribution
system.l2bus.trans_dist::ReadExReq               2041                       # Transaction distribution
system.l2bus.trans_dist::ReadExResp              2041                       # Transaction distribution
system.l2bus.trans_dist::ReadSharedReq          17992                       # Transaction distribution
system.l2bus.pkt_count_system.cpu.icache.mem_side::system.l2cache.cpu_side         9075                       # Packet count per connected master and slave (bytes)
system.l2bus.pkt_count_system.cpu.dcache.mem_side::system.l2cache.cpu_side        49742                       # Packet count per connected master and slave (bytes)
system.l2bus.pkt_count::total                   58817                       # Packet count per connected master and slave (bytes)
system.l2bus.pkt_size_system.cpu.icache.mem_side::system.l2cache.cpu_side       198976                       # Cumulative packet size per connected master and slave (bytes)
system.l2bus.pkt_size_system.cpu.dcache.mem_side::system.l2cache.cpu_side      1261760                       # Cumulative packet size per connected master and slave (bytes)
system.l2bus.pkt_size::total                  1460736                       # Cumulative packet size per connected master and slave (bytes)
system.l2bus.snoops                             10496                       # Total snoops (count)
system.l2bus.snoopTraffic                       86272                       # Total snoop traffic (bytes)
system.l2bus.snoop_fanout::samples              30527                       # Request fanout histogram
system.l2bus.snoop_fanout::mean              0.014872                       # Request fanout histogram
system.l2bus.snoop_fanout::stdev             0.121313                       # Request fanout histogram
system.l2bus.snoop_fanout::underflows               0      0.00%      0.00% # Request fanout histogram
system.l2bus.snoop_fanout::0                    30074     98.52%     98.52% # Request fanout histogram
system.l2bus.snoop_fanout::1                      452      1.48%    100.00% # Request fanout histogram
system.l2bus.snoop_fanout::2                        1      0.00%    100.00% # Request fanout histogram
system.l2bus.snoop_fanout::overflows                0      0.00%    100.00% # Request fanout histogram
system.l2bus.snoop_fanout::min_value                0                       # Request fanout histogram
system.l2bus.snoop_fanout::max_value                2                       # Request fanout histogram
system.l2bus.snoop_fanout::total                30527                       # Request fanout histogram
system.l2bus.respLayer1.occupancy            20307198                       # Layer occupancy (ticks)
system.l2bus.respLayer1.utilization               1.7                       # Layer utilization (%)
system.l2bus.reqLayer0.occupancy             19170364                       # Layer occupancy (ticks)
system.l2bus.reqLayer0.utilization                1.6                       # Layer utilization (%)
system.l2bus.respLayer0.occupancy             3733599                       # Layer occupancy (ticks)
system.l2bus.respLayer0.utilization               0.3                       # Layer utilization (%)
system.clk_domain.clock                           400                       # Clock period in ticks
system.clk_domain.voltage_domain.voltage            1                       # Voltage in Volts
system.cpu.pwrStateResidencyTicks::ON      1168043200                       # Cumulative time (in ticks) in various power states
system.cpu.icache.pwrStateResidencyTicks::UNDEFINED   1168043200                       # Cumulative time (in ticks) in various power states
system.cpu.icache.demand_hits::.cpu.inst       273029                       # number of demand (read+write) hits
system.cpu.icache.demand_hits::total           273029                       # number of demand (read+write) hits
system.cpu.icache.overall_hits::.cpu.inst       273029                       # number of overall hits
system.cpu.icache.overall_hits::total          273029                       # number of overall hits
system.cpu.icache.demand_misses::.cpu.inst         3846                       # number of demand (read+write) misses
system.cpu.icache.demand_misses::total           3846                       # number of demand (read+write) misses
system.cpu.icache.overall_misses::.cpu.inst         3846                       # number of overall misses
system.cpu.icache.overall_misses::total          3846                       # number of overall misses
system.cpu.icache.demand_miss_latency::.cpu.inst    186302399                       # number of demand (read+write) miss cycles
system.cpu.icache.demand_miss_latency::total    186302399                       # number of demand (read+write) miss cycles
system.cpu.icache.overall_miss_latency::.cpu.inst    186302399                       # number of overall miss cycles
system.cpu.icache.overall_miss_latency::total    186302399                       # number of overall miss cycles
system.cpu.icache.demand_accesses::.cpu.inst       276875                       # number of demand (read+write) accesses
system.cpu.icache.demand_accesses::total       276875                       # number of demand (read+write) accesses
system.cpu.icache.overall_accesses::.cpu.inst       276875                       # number of overall (read+write) accesses
system.cpu.icache.overall_accesses::total       276875                       # number of overall (read+write) accesses
system.cpu.icache.demand_miss_rate::.cpu.inst     0.013891                       # miss rate for demand accesses
system.cpu.icache.demand_miss_rate::total     0.013891                       # miss rate for demand accesses
system.cpu.icache.overall_miss_rate::.cpu.inst     0.013891                       # miss rate for overall accesses
system.cpu.icache.overall_miss_rate::total     0.013891                       # miss rate for overall accesses
system.cpu.icache.demand_avg_miss_latency::.cpu.inst 48440.561362                       # average overall miss latency
system.cpu.icache.demand_avg_miss_latency::total 48440.561362                       # average overall miss latency
system.cpu.icache.overall_avg_miss_latency::.cpu.inst 48440.561362                       # average overall miss latency
system.cpu.icache.overall_avg_miss_latency::total 48440.561362                       # average overall miss latency
system.cpu.icache.blocked_cycles::no_mshrs          261                       # number of cycles access was blocked
system.cpu.icache.blocked_cycles::no_targets            0                       # number of cycles access was blocked
system.cpu.icache.blocked::no_mshrs                 7                       # number of cycles access was blocked
system.cpu.icache.blocked::no_targets               0                       # number of cycles access was blocked
system.cpu.icache.avg_blocked_cycles::no_mshrs    37.285714                       # average number of cycles each access was blocked
system.cpu.icache.avg_blocked_cycles::no_targets          nan                       # average number of cycles each access was blocked
system.cpu.icache.demand_mshr_hits::.cpu.inst          735                       # number of demand (read+write) MSHR hits
system.cpu.icache.demand_mshr_hits::total          735                       # number of demand (read+write) MSHR hits
system.cpu.icache.overall_mshr_hits::.cpu.inst          735                       # number of overall MSHR hits
system.cpu.icache.overall_mshr_hits::total          735                       # number of overall MSHR hits
system.cpu.icache.demand_mshr_misses::.cpu.inst         3111                       # number of demand (read+write) MSHR misses
system.cpu.icache.demand_mshr_misses::total         3111                       # number of demand (read+write) MSHR misses
system.cpu.icache.overall_mshr_misses::.cpu.inst         3111                       # number of overall MSHR misses
system.cpu.icache.overall_mshr_misses::total         3111                       # number of overall MSHR misses
system.cpu.icache.demand_mshr_miss_latency::.cpu.inst    150008799                       # number of demand (read+write) MSHR miss cycles
system.cpu.icache.demand_mshr_miss_latency::total    150008799                       # number of demand (read+write) MSHR miss cycles
system.cpu.icache.overall_mshr_miss_latency::.cpu.inst    150008799                       # number of overall MSHR miss cycles
system.cpu.icache.overall_mshr_miss_latency::total    150008799                       # number of overall MSHR miss cycles
system.cpu.icache.demand_mshr_miss_rate::.cpu.inst     0.011236                       # mshr miss rate for demand accesses
system.cpu.icache.demand_mshr_miss_rate::total     0.011236                       # mshr miss rate for demand accesses
system.cpu.icache.overall_mshr_miss_rate::.cpu.inst     0.011236                       # mshr miss rate for overall accesses
system.cpu.icache.overall_mshr_miss_rate::total     0.011236                       # mshr miss rate for overall accesses
system.cpu.icache.demand_avg_mshr_miss_latency::.cpu.inst 48218.836066                       # average overall mshr miss latency
system.cpu.icache.demand_avg_mshr_miss_latency::total 48218.836066                       # average overall mshr miss latency
system.cpu.icache.overall_avg_mshr_miss_latency::.cpu.inst 48218.836066                       # average overall mshr miss latency
system.cpu.icache.overall_avg_mshr_miss_latency::total 48218.836066                       # average overall mshr miss latency
system.cpu.icache.replacements                   2855                       # number of replacements
system.cpu.icache.ReadReq_hits::.cpu.inst       273029                       # number of ReadReq hits
system.cpu.icache.ReadReq_hits::total          273029                       # number of ReadReq hits
system.cpu.icache.ReadReq_misses::.cpu.inst         3846                       # number of ReadReq misses
system.cpu.icache.ReadReq_misses::total          3846                       # number of ReadReq misses
system.cpu.icache.ReadReq_miss_latency::.cpu.inst    186302399                       # number of ReadReq miss cycles
system.cpu.icache.ReadReq_miss_latency::total    186302399                       # number of ReadReq miss cycles
system.cpu.icache.ReadReq_accesses::.cpu.inst       276875                       # number of ReadReq accesses(hits+misses)
system.cpu.icache.ReadReq_accesses::total       276875                       # number of ReadReq accesses(hits+misses)
system.cpu.icache.ReadReq_miss_rate::.cpu.inst     0.013891                       # miss rate for ReadReq accesses
system.cpu.icache.ReadReq_miss_rate::total     0.013891                       # miss rate for ReadReq accesses
system.cpu.icache.ReadReq_avg_miss_latency::.cpu.inst 48440.561362                       # average ReadReq miss latency
system.cpu.icache.ReadReq_avg_miss_latency::total 48440.561362                       # average ReadReq miss latency
system.cpu.icache.ReadReq_mshr_hits::.cpu.inst          735                       # number of ReadReq MSHR hits
system.cpu.icache.ReadReq_mshr_hits::total          735                       # number of ReadReq MSHR hits
system.cpu.icache.ReadReq_mshr_misses::.cpu.inst         3111                       # number of ReadReq MSHR misses
system.cpu.icache.ReadReq_mshr_misses::total         3111                       # number of ReadReq MSHR misses
system.cpu.icache.ReadReq_mshr_miss_latency::.cpu.inst    150008799                       # number of ReadReq MSHR miss cycles
system.cpu.icache.ReadReq_mshr_miss_latency::total    150008799                       # number of ReadReq MSHR miss cycles
system.cpu.icache.ReadReq_mshr_miss_rate::.cpu.inst     0.011236                       # mshr miss rate for ReadReq accesses
system.cpu.icache.ReadReq_mshr_miss_rate::total     0.011236                       # mshr miss rate for ReadReq accesses
system.cpu.icache.ReadReq_avg_mshr_miss_latency::.cpu.inst 48218.836066                       # average ReadReq mshr miss latency
system.cpu.icache.ReadReq_avg_mshr_miss_latency::total 48218.836066                       # average ReadReq mshr miss latency
system.cpu.icache.prefetcher.pwrStateResidencyTicks::UNDEFINED   1168043200                       # Cumulative time (in ticks) in various power states
system.cpu.icache.tags.pwrStateResidencyTicks::UNDEFINED   1168043200                       # Cumulative time (in ticks) in various power states
system.cpu.icache.tags.tagsinuse           253.650233                       # Cycle average of tags in use
system.cpu.icache.tags.total_refs              243040                       # Total number of references to valid blocks.
system.cpu.icache.tags.sampled_refs              2855                       # Sample count of references to valid blocks.
system.cpu.icache.tags.avg_refs             85.127846                       # Average number of references to valid blocks.
system.cpu.icache.tags.warmup_cycle             66400                       # Cycle when the warmup percentage was hit.
system.cpu.icache.tags.occ_blocks::.cpu.inst   253.650233                       # Average occupied blocks per requestor
system.cpu.icache.tags.occ_percent::.cpu.inst     0.990821                       # Average percentage of cache occupancy
system.cpu.icache.tags.occ_percent::total     0.990821                       # Average percentage of cache occupancy
system.cpu.icache.tags.occ_task_id_blocks::1024          256                       # Occupied blocks per task id
system.cpu.icache.tags.age_task_id_blocks_1024::0           76                       # Occupied blocks per task id
system.cpu.icache.tags.age_task_id_blocks_1024::1          135                       # Occupied blocks per task id
system.cpu.icache.tags.age_task_id_blocks_1024::2           40                       # Occupied blocks per task id
system.cpu.icache.tags.age_task_id_blocks_1024::3            5                       # Occupied blocks per task id
system.cpu.icache.tags.occ_task_id_percent::1024            1                       # Percentage of cache occupancy per task id
system.cpu.icache.tags.tag_accesses            556861                       # Number of tag accesses
system.cpu.icache.tags.data_accesses           556861                       # Number of data accesses
system.cpu.dtb.walker.pwrStateResidencyTicks::UNDEFINED   1168043200                       # Cumulative time (in ticks) in various power states
system.cpu.interrupts.clk_domain.clock           6400                       # Clock period in ticks
system.cpu.itb.walker.pwrStateResidencyTicks::UNDEFINED   1168043200                       # Cumulative time (in ticks) in various power states
system.cpu.dcache.pwrStateResidencyTicks::UNDEFINED   1168043200                       # Cumulative time (in ticks) in various power states
system.cpu.dcache.demand_hits::.cpu.data       770624                       # number of demand (read+write) hits
system.cpu.dcache.demand_hits::total           770624                       # number of demand (read+write) hits
system.cpu.dcache.overall_hits::.cpu.data       770624                       # number of overall hits
system.cpu.dcache.overall_hits::total          770624                       # number of overall hits
system.cpu.dcache.demand_misses::.cpu.data        34832                       # number of demand (read+write) misses
system.cpu.dcache.demand_misses::total          34832                       # number of demand (read+write) misses
system.cpu.dcache.overall_misses::.cpu.data        34832                       # number of overall misses
system.cpu.dcache.overall_misses::total         34832                       # number of overall misses
system.cpu.dcache.demand_miss_latency::.cpu.data   1681913200                       # number of demand (read+write) miss cycles
system.cpu.dcache.demand_miss_latency::total   1681913200                       # number of demand (read+write) miss cycles
system.cpu.dcache.overall_miss_latency::.cpu.data   1681913200                       # number of overall miss cycles
system.cpu.dcache.overall_miss_latency::total   1681913200                       # number of overall miss cycles
system.cpu.dcache.demand_accesses::.cpu.data       805456                       # number of demand (read+write) accesses
system.cpu.dcache.demand_accesses::total       805456                       # number of demand (read+write) accesses
system.cpu.dcache.overall_accesses::.cpu.data       805456                       # number of overall (read+write) accesses
system.cpu.dcache.overall_accesses::total       805456                       # number of overall (read+write) accesses
system.cpu.dcache.demand_miss_rate::.cpu.data     0.043245                       # miss rate for demand accesses
system.cpu.dcache.demand_miss_rate::total     0.043245                       # miss rate for demand accesses
system.cpu.dcache.overall_miss_rate::.cpu.data     0.043245                       # miss rate for overall accesses
system.cpu.dcache.overall_miss_rate::total     0.043245                       # miss rate for overall accesses
system.cpu.dcache.demand_avg_miss_latency::.cpu.data 48286.437758                       # average overall miss latency
system.cpu.dcache.demand_avg_miss_latency::total 48286.437758                       # average overall miss latency
system.cpu.dcache.overall_avg_miss_latency::.cpu.data 48286.437758                       # average overall miss latency
system.cpu.dcache.overall_avg_miss_latency::total 48286.437758                       # average overall miss latency
system.cpu.dcache.blocked_cycles::no_mshrs        27625                       # number of cycles access was blocked
system.cpu.dcache.blocked_cycles::no_targets          183                       # number of cycles access was blocked
system.cpu.dcache.blocked::no_mshrs               719                       # number of cycles access was blocked
system.cpu.dcache.blocked::no_targets               2                       # number of cycles access was blocked
system.cpu.dcache.avg_blocked_cycles::no_mshrs    38.421419                       # average number of cycles each access was blocked
system.cpu.dcache.avg_blocked_cycles::no_targets    91.500000                       # average number of cycles each access was blocked
system.cpu.dcache.unused_prefetches              1761                       # number of HardPF blocks evicted w/o reference
system.cpu.dcache.writebacks::.writebacks         2793                       # number of writebacks
system.cpu.dcache.writebacks::total              2793                       # number of writebacks
system.cpu.dcache.demand_mshr_hits::.cpu.data        22248                       # number of demand (read+write) MSHR hits
system.cpu.dcache.demand_mshr_hits::total        22248                       # number of demand (read+write) MSHR hits
system.cpu.dcache.overall_mshr_hits::.cpu.data        22248                       # number of overall MSHR hits
system.cpu.dcache.overall_mshr_hits::total        22248                       # number of overall MSHR hits
system.cpu.dcache.demand_mshr_misses::.cpu.data        12584                       # number of demand (read+write) MSHR misses
system.cpu.dcache.demand_mshr_misses::total        12584                       # number of demand (read+write) MSHR misses
system.cpu.dcache.overall_mshr_misses::.cpu.data        12584                       # number of overall MSHR misses
system.cpu.dcache.overall_mshr_misses::.cpu.dcache.prefetcher         4338                       # number of overall MSHR misses
system.cpu.dcache.overall_mshr_misses::total        16922                       # number of overall MSHR misses
system.cpu.dcache.demand_mshr_miss_latency::.cpu.data    574880400                       # number of demand (read+write) MSHR miss cycles
system.cpu.dcache.demand_mshr_miss_latency::total    574880400                       # number of demand (read+write) MSHR miss cycles
system.cpu.dcache.overall_mshr_miss_latency::.cpu.data    574880400                       # number of overall MSHR miss cycles
system.cpu.dcache.overall_mshr_miss_latency::.cpu.dcache.prefetcher    251099045                       # number of overall MSHR miss cycles
system.cpu.dcache.overall_mshr_miss_latency::total    825979445                       # number of overall MSHR miss cycles
system.cpu.dcache.demand_mshr_miss_rate::.cpu.data     0.015623                       # mshr miss rate for demand accesses
system.cpu.dcache.demand_mshr_miss_rate::total     0.015623                       # mshr miss rate for demand accesses
system.cpu.dcache.overall_mshr_miss_rate::.cpu.data     0.015623                       # mshr miss rate for overall accesses
system.cpu.dcache.overall_mshr_miss_rate::.cpu.dcache.prefetcher          inf                       # mshr miss rate for overall accesses
system.cpu.dcache.overall_mshr_miss_rate::total     0.021009                       # mshr miss rate for overall accesses
system.cpu.dcache.demand_avg_mshr_miss_latency::.cpu.data 45683.439288                       # average overall mshr miss latency
system.cpu.dcache.demand_avg_mshr_miss_latency::total 45683.439288                       # average overall mshr miss latency
system.cpu.dcache.overall_avg_mshr_miss_latency::.cpu.data 45683.439288                       # average overall mshr miss latency
system.cpu.dcache.overall_avg_mshr_miss_latency::.cpu.dcache.prefetcher 57883.597280                       # average overall mshr miss latency
system.cpu.dcache.overall_avg_mshr_miss_latency::total 48810.982449                       # average overall mshr miss latency
system.cpu.dcache.replacements                  15898                       # number of replacements
system.cpu.dcache.ReadReq_hits::.cpu.data       570426                       # number of ReadReq hits
system.cpu.dcache.ReadReq_hits::total          570426                       # number of ReadReq hits
system.cpu.dcache.ReadReq_misses::.cpu.data        32755                       # number of ReadReq misses
system.cpu.dcache.ReadReq_misses::total         32755                       # number of ReadReq misses
system.cpu.dcache.ReadReq_miss_latency::.cpu.data   1578576400                       # number of ReadReq miss cycles
system.cpu.dcache.ReadReq_miss_latency::total   1578576400                       # number of ReadReq miss cycles
system.cpu.dcache.ReadReq_accesses::.cpu.data       603181                       # number of ReadReq accesses(hits+misses)
system.cpu.dcache.ReadReq_accesses::total       603181                       # number of ReadReq accesses(hits+misses)
system.cpu.dcache.ReadReq_miss_rate::.cpu.data     0.054304                       # miss rate for ReadReq accesses
system.cpu.dcache.ReadReq_miss_rate::total     0.054304                       # miss rate for ReadReq accesses
system.cpu.dcache.ReadReq_avg_miss_latency::.cpu.data 48193.448328                       # average ReadReq miss latency
system.cpu.dcache.ReadReq_avg_miss_latency::total 48193.448328                       # average ReadReq miss latency
system.cpu.dcache.ReadReq_mshr_hits::.cpu.data        22212                       # number of ReadReq MSHR hits
system.cpu.dcache.ReadReq_mshr_hits::total        22212                       # number of ReadReq MSHR hits
system.cpu.dcache.ReadReq_mshr_misses::.cpu.data        10543                       # number of ReadReq MSHR misses
system.cpu.dcache.ReadReq_mshr_misses::total        10543                       # number of ReadReq MSHR misses
system.cpu.dcache.ReadReq_mshr_miss_latency::.cpu.data    474345200                       # number of ReadReq MSHR miss cycles
system.cpu.dcache.ReadReq_mshr_miss_latency::total    474345200                       # number of ReadReq MSHR miss cycles
system.cpu.dcache.ReadReq_mshr_miss_rate::.cpu.data     0.017479                       # mshr miss rate for ReadReq accesses
system.cpu.dcache.ReadReq_mshr_miss_rate::total     0.017479                       # mshr miss rate for ReadReq accesses
system.cpu.dcache.ReadReq_avg_mshr_miss_latency::.cpu.data 44991.482500                       # average ReadReq mshr miss latency
system.cpu.dcache.ReadReq_avg_mshr_miss_latency::total 44991.482500                       # average ReadReq mshr miss latency
system.cpu.dcache.WriteReq_hits::.cpu.data       200198                       # number of WriteReq hits
system.cpu.dcache.WriteReq_hits::total         200198                       # number of WriteReq hits
system.cpu.dcache.WriteReq_misses::.cpu.data         2077                       # number of WriteReq misses
system.cpu.dcache.WriteReq_misses::total         2077                       # number of WriteReq misses
system.cpu.dcache.WriteReq_miss_latency::.cpu.data    103336800                       # number of WriteReq miss cycles
system.cpu.dcache.WriteReq_miss_latency::total    103336800                       # number of WriteReq miss cycles
system.cpu.dcache.WriteReq_accesses::.cpu.data       202275                       # number of WriteReq accesses(hits+misses)
system.cpu.dcache.WriteReq_accesses::total       202275                       # number of WriteReq accesses(hits+misses)
system.cpu.dcache.WriteReq_miss_rate::.cpu.data     0.010268                       # miss rate for WriteReq accesses
system.cpu.dcache.WriteReq_miss_rate::total     0.010268                       # miss rate for WriteReq accesses
system.cpu.dcache.WriteReq_avg_miss_latency::.cpu.data 49752.912855                       # average WriteReq miss latency
system.cpu.dcache.WriteReq_avg_miss_latency::total 49752.912855                       # average WriteReq miss latency
system.cpu.dcache.WriteReq_mshr_hits::.cpu.data           36                       # number of WriteReq MSHR hits
system.cpu.dcache.WriteReq_mshr_hits::total           36                       # number of WriteReq MSHR hits
system.cpu.dcache.WriteReq_mshr_misses::.cpu.data         2041                       # number of WriteReq MSHR misses
system.cpu.dcache.WriteReq_mshr_misses::total         2041                       # number of WriteReq MSHR misses
[...]
system.l2cache.writebacks::total                   13                       # number of writebacks
system.l2cache.demand_mshr_misses::.cpu.inst          155                       # number of demand (read+write) MSHR misses
system.l2cache.demand_mshr_misses::.cpu.data           83                       # number of demand (read+write) MSHR misses
system.l2cache.demand_mshr_misses::.cpu.dcache.prefetcher           14                       # number of demand (read+write) MSHR misses
system.l2cache.demand_mshr_misses::total          252                       # number of demand (read+write) MSHR misses
system.l2cache.overall_mshr_misses::.cpu.inst          155                       # number of overall MSHR misses
system.l2cache.overall_mshr_misses::.cpu.data           83                       # number of overall MSHR misses
system.l2cache.overall_mshr_misses::.cpu.dcache.prefetcher           14                       # number of overall MSHR misses
system.l2cache.overall_mshr_misses::total          252                       # number of overall MSHR misses
system.l2cache.demand_mshr_miss_latency::.cpu.inst      9581600                       # number of demand (read+write) MSHR miss cycles
system.l2cache.demand_mshr_miss_latency::.cpu.data      4905600                       # number of demand (read+write) MSHR miss cycles
system.l2cache.demand_mshr_miss_latency::.cpu.dcache.prefetcher       833584                       # number of demand (read+write) MSHR miss cycles
system.l2cache.demand_mshr_miss_latency::total     15320784                       # number of demand (read+write) MSHR miss cycles
system.l2cache.overall_mshr_miss_latency::.cpu.inst      9581600                       # number of overall MSHR miss cycles
system.l2cache.overall_mshr_miss_latency::.cpu.data      4905600                       # number of overall MSHR miss cycles
system.l2cache.overall_mshr_miss_latency::.cpu.dcache.prefetcher       833584                       # number of overall MSHR miss cycles
system.l2cache.overall_mshr_miss_latency::total     15320784                       # number of overall MSHR miss cycles
system.l2cache.demand_mshr_miss_rate::.cpu.inst     0.360465                       # mshr miss rate for demand accesses
system.l2cache.demand_mshr_miss_rate::.cpu.data     0.553333                       # mshr miss rate for demand accesses
system.l2cache.demand_mshr_miss_rate::.cpu.dcache.prefetcher     0.636364                       # mshr miss rate for demand accesses
system.l2cache.demand_mshr_miss_rate::total     0.418605                       # mshr miss rate for demand accesses
system.l2cache.overall_mshr_miss_rate::.cpu.inst     0.360465                       # mshr miss rate for overall accesses
system.l2cache.overall_mshr_miss_rate::.cpu.data     0.553333                       # mshr miss rate for overall accesses
system.l2cache.overall_mshr_miss_rate::.cpu.dcache.prefetcher     0.636364                       # mshr miss rate for overall accesses
system.l2cache.overall_mshr_miss_rate::total     0.418605                       # mshr miss rate for overall accesses
system.l2cache.demand_avg_mshr_miss_latency::.cpu.inst 61816.774194                       # average overall mshr miss latency
system.l2cache.demand_avg_mshr_miss_latency::.cpu.data 59103.614458                       # average overall mshr miss latency
system.l2cache.demand_avg_mshr_miss_latency::.cpu.dcache.prefetcher 59541.714286                       # average overall mshr miss latency
system.l2cache.demand_avg_mshr_miss_latency::total 60796.761905                       # average overall mshr miss latency
system.l2cache.overall_avg_mshr_miss_latency::.cpu.inst 61816.774194                       # average overall mshr miss latency
system.l2cache.overall_avg_mshr_miss_latency::.cpu.data 59103.614458                       # average overall mshr miss latency
system.l2cache.overall_avg_mshr_miss_latency::.cpu.dcache.prefetcher 59541.714286                       # average overall mshr miss latency
system.l2cache.overall_avg_mshr_miss_latency::total 60796.761905                       # average overall mshr miss latency
system.l2cache.replacements                       255                       # number of replacements
system.l2cache.WritebackDirty_hits::.writebacks           37                       # number of WritebackDirty hits
system.l2cache.WritebackDirty_hits::total           37                       # number of WritebackDirty hits
system.l2cache.WritebackDirty_accesses::.writebacks           37                       # number of WritebackDirty accesses(hits+misses)
system.l2cache.WritebackDirty_accesses::total           37                       # number of WritebackDirty accesses(hits+misses)
system.l2cache.CleanEvict_mshr_misses::.writebacks            7                       # number of CleanEvict MSHR misses
system.l2cache.CleanEvict_mshr_misses::total            7                       # number of CleanEvict MSHR misses
system.l2cache.CleanEvict_mshr_miss_rate::.writebacks          inf                       # mshr miss rate for CleanEvict accesses
system.l2cache.CleanEvict_mshr_miss_rate::total          inf                       # mshr miss rate for CleanEvict accesses
system.l2cache.ReadExReq_hits::.cpu.data            4                       # number of ReadExReq hits
system.l2cache.ReadExReq_hits::total                4                       # number of ReadExReq hits
system.l2cache.ReadExReq_misses::.cpu.data            4                       # number of ReadExReq misses
system.l2cache.ReadExReq_misses::total              4                       # number of ReadExReq misses
system.l2cache.ReadExReq_miss_latency::.cpu.data       324400                       # number of ReadExReq miss cycles
system.l2cache.ReadExReq_miss_latency::total       324400                       # number of ReadExReq miss cycles
system.l2cache.ReadExReq_accesses::.cpu.data            8                       # number of ReadExReq accesses(hits+misses)
system.l2cache.ReadExReq_accesses::total            8                       # number of ReadExReq accesses(hits+misses)
system.l2cache.ReadExReq_miss_rate::.cpu.data     0.500000                       # miss rate for ReadExReq accesses
system.l2cache.ReadExReq_miss_rate::total     0.500000                       # miss rate for ReadExReq accesses
system.l2cache.ReadExReq_avg_miss_latency::.cpu.data        81100                       # average ReadExReq miss latency
system.l2cache.ReadExReq_avg_miss_latency::total        81100                       # average ReadExReq miss latency
system.l2cache.ReadExReq_mshr_misses::.cpu.data            4                       # number of ReadExReq MSHR misses
system.l2cache.ReadExReq_mshr_misses::total            4                       # number of ReadExReq MSHR misses
system.l2cache.ReadExReq_mshr_miss_latency::.cpu.data       292400                       # number of ReadExReq MSHR miss cycles
system.l2cache.ReadExReq_mshr_miss_latency::total       292400                       # number of ReadExReq MSHR miss cycles
system.l2cache.ReadExReq_mshr_miss_rate::.cpu.data     0.500000                       # mshr miss rate for ReadExReq accesses
system.l2cache.ReadExReq_mshr_miss_rate::total     0.500000                       # mshr miss rate for ReadExReq accesses
system.l2cache.ReadExReq_avg_mshr_miss_latency::.cpu.data        73100                       # average ReadExReq mshr miss latency
system.l2cache.ReadExReq_avg_mshr_miss_latency::total        73100                       # average ReadExReq mshr miss latency
system.l2cache.ReadSharedReq_hits::.cpu.inst          275                       # number of ReadSharedReq hits
system.l2cache.ReadSharedReq_hits::.cpu.data           63                       # number of ReadSharedReq hits
system.l2cache.ReadSharedReq_hits::.cpu.dcache.prefetcher            8                       # number of ReadSharedReq hits
system.l2cache.ReadSharedReq_hits::total          346                       # number of ReadSharedReq hits
system.l2cache.ReadSharedReq_misses::.cpu.inst          155                       # number of ReadSharedReq misses
system.l2cache.ReadSharedReq_misses::.cpu.data           79                       # number of ReadSharedReq misses
system.l2cache.ReadSharedReq_misses::.cpu.dcache.prefetcher           14                       # number of ReadSharedReq misses
system.l2cache.ReadSharedReq_misses::total          248                       # number of ReadSharedReq misses
system.l2cache.ReadSharedReq_miss_latency::.cpu.inst     10813600                       # number of ReadSharedReq miss cycles
system.l2cache.ReadSharedReq_miss_latency::.cpu.data      5245200                       # number of ReadSharedReq miss cycles
system.l2cache.ReadSharedReq_miss_latency::.cpu.dcache.prefetcher       945584                       # number of ReadSharedReq miss cycles
system.l2cache.ReadSharedReq_miss_latency::total     17004384                       # number of ReadSharedReq miss cycles
system.l2cache.ReadSharedReq_accesses::.cpu.inst          430                       # number of ReadSharedReq accesses(hits+misses)
system.l2cache.ReadSharedReq_accesses::.cpu.data          142                       # number of ReadSharedReq accesses(hits+misses)
system.l2cache.ReadSharedReq_accesses::.cpu.dcache.prefetcher           22                       # number of ReadSharedReq accesses(hits+misses)
system.l2cache.ReadSharedReq_accesses::total          594                       # number of ReadSharedReq accesses(hits+misses)
system.l2cache.ReadSharedReq_miss_rate::.cpu.inst     0.360465                       # miss rate for ReadSharedReq accesses
system.l2cache.ReadSharedReq_miss_rate::.cpu.data     0.556338                       # miss rate for ReadSharedReq accesses
system.l2cache.ReadSharedReq_miss_rate::.cpu.dcache.prefetcher     0.636364                       # miss rate for ReadSharedReq accesses
system.l2cache.ReadSharedReq_miss_rate::total     0.417508                       # miss rate for ReadSharedReq accesses
system.l2cache.ReadSharedReq_avg_miss_latency::.cpu.inst 69765.161290                       # average ReadSharedReq miss latency
system.l2cache.ReadSharedReq_avg_miss_latency::.cpu.data 66394.936709                       # average ReadSharedReq miss latency
system.l2cache.ReadSharedReq_avg_miss_latency::.cpu.dcache.prefetcher 67541.714286                       # average ReadSharedReq miss latency
system.l2cache.ReadSharedReq_avg_miss_latency::total 68566.064516                       # average ReadSharedReq miss latency
system.l2cache.ReadSharedReq_mshr_misses::.cpu.inst          155                       # number of ReadSharedReq MSHR misses
system.l2cache.ReadSharedReq_mshr_misses::.cpu.data           79                       # number of ReadSharedReq MSHR misses
system.l2cache.ReadSharedReq_mshr_misses::.cpu.dcache.prefetcher           14                       # number of ReadSharedReq MSHR misses
system.l2cache.ReadSharedReq_mshr_misses::total          248                       # number of ReadSharedReq MSHR misses
system.l2cache.ReadSharedReq_mshr_miss_latency::.cpu.inst      9581600                       # number of ReadSharedReq MSHR miss cycles
system.l2cache.ReadSharedReq_mshr_miss_latency::.cpu.data      4613200                       # number of ReadSharedReq MSHR miss cycles
system.l2cache.ReadSharedReq_mshr_miss_latency::.cpu.dcache.prefetcher       833584                       # number of ReadSharedReq MSHR miss cycles
system.l2cache.ReadSharedReq_mshr_miss_latency::total     15028384                       # number of ReadSharedReq MSHR miss cycles
system.l2cache.ReadSharedReq_mshr_miss_rate::.cpu.inst     0.360465                       # mshr miss rate for ReadSharedReq accesses
system.l2cache.ReadSharedReq_mshr_miss_rate::.cpu.data     0.556338                       # mshr miss rate for ReadSharedReq accesses
system.l2cache.ReadSharedReq_mshr_miss_rate::.cpu.dcache.prefetcher     0.636364                       # mshr miss rate for ReadSharedReq accesses
system.l2cache.ReadSharedReq_mshr_miss_rate::total     0.417508                       # mshr miss rate for ReadSharedReq accesses
system.l2cache.ReadSharedReq_avg_mshr_miss_latency::.cpu.inst 61816.774194                       # average ReadSharedReq mshr miss latency
system.l2cache.ReadSharedReq_avg_mshr_miss_latency::.cpu.data 58394.936709                       # average ReadSharedReq mshr miss latency
system.l2cache.ReadSharedReq_avg_mshr_miss_latency::.cpu.dcache.prefetcher 59541.714286                       # average ReadSharedReq mshr miss latency
system.l2cache.ReadSharedReq_avg_mshr_miss_latency::total 60598.322581                       # average ReadSharedReq mshr miss latency
system.l2cache.prefetcher.pwrStateResidencyTicks::UNDEFINED     87420000                       # Cumulative time (in ticks) in various power states
system.l2cache.tags.pwrStateResidencyTicks::UNDEFINED     87420000                       # Cumulative time (in ticks) in various power states
system.l2cache.tags.tagsinuse                    4096                       # Cycle average of tags in use
system.l2cache.tags.total_refs                  13860                       # Total number of references to valid blocks.
system.l2cache.tags.sampled_refs                 4351                       # Sample count of references to valid blocks.
system.l2cache.tags.avg_refs                 3.185475                       # Average number of references to valid blocks.
system.l2cache.tags.warmup_cycle                    0                       # Cycle when the warmup percentage was hit.
system.l2cache.tags.occ_blocks::.writebacks    38.995452                       # Average occupied blocks per requestor
system.l2cache.tags.occ_blocks::.cpu.inst  1142.084650                       # Average occupied blocks per requestor
system.l2cache.tags.occ_blocks::.cpu.data  1835.353351                       # Average occupied blocks per requestor
system.l2cache.tags.occ_blocks::.cpu.dcache.prefetcher   968.811869                       # Average occupied blocks per requestor
system.l2cache.tags.occ_blocks::.l2cache.prefetcher   110.754679                       # Average occupied blocks per requestor
system.l2cache.tags.occ_percent::.writebacks     0.009520                       # Average percentage of cache occupancy
system.l2cache.tags.occ_percent::.cpu.inst     0.278829                       # Average percentage of cache occupancy
system.l2cache.tags.occ_percent::.cpu.data     0.448084                       # Average percentage of cache occupancy
system.l2cache.tags.occ_percent::.cpu.dcache.prefetcher     0.236526                       # Average percentage of cache occupancy
system.l2cache.tags.occ_percent::.l2cache.prefetcher     0.027040                       # Average percentage of cache occupancy
system.l2cache.tags.occ_percent::total       1.000000                       # Average percentage of cache occupancy
system.l2cache.tags.occ_task_id_blocks::1022         1028                       # Occupied blocks per task id
system.l2cache.tags.occ_task_id_blocks::1024         3068                       # Occupied blocks per task id
system.l2cache.tags.age_task_id_blocks_1022::0           10                       # Occupied blocks per task id
system.l2cache.tags.age_task_id_blocks_1022::1            4                       # Occupied blocks per task id
system.l2cache.tags.age_task_id_blocks_1022::4         1014                       # Occupied blocks per task id
system.l2cache.tags.age_task_id_blocks_1024::0          166                       # Occupied blocks per task id
system.l2cache.tags.age_task_id_blocks_1024::1           75                       # Occupied blocks per task id
system.l2cache.tags.age_task_id_blocks_1024::4         2827                       # Occupied blocks per task id
system.l2cache.tags.occ_task_id_percent::1022     0.250977                       # Percentage of cache occupancy per task id
system.l2cache.tags.occ_task_id_percent::1024     0.749023                       # Percentage of cache occupancy per task id
system.l2cache.tags.tag_accesses                 9879                       # Number of tag accesses
system.l2cache.tags.data_accesses                9879                       # Number of data accesses
system.mem_ctrl.pwrStateResidencyTicks::UNDEFINED     87420000                       # Cumulative time (in ticks) in various power states
system.mem_ctrl.bytes_read::.cpu.inst            9856                       # Number of bytes read from this memory
system.mem_ctrl.bytes_read::.cpu.data            5312                       # Number of bytes read from this memory
system.mem_ctrl.bytes_read::.cpu.dcache.prefetcher          896                       # Number of bytes read from this memory
system.mem_ctrl.bytes_read::total               16064                       # Number of bytes read from this memory
system.mem_ctrl.bytes_inst_read::.cpu.inst         9856                       # Number of instructions bytes read from this memory
system.mem_ctrl.bytes_inst_read::total           9856                       # Number of instructions bytes read from this memory
system.mem_ctrl.bytes_written::.writebacks          832                       # Number of bytes written to this memory
system.mem_ctrl.bytes_written::total              832                       # Number of bytes written to this memory
system.mem_ctrl.num_reads::.cpu.inst              154                       # Number of read requests responded to by this memory
system.mem_ctrl.num_reads::.cpu.data               83                       # Number of read requests responded to by this memory
system.mem_ctrl.num_reads::.cpu.dcache.prefetcher           14                       # Number of read requests responded to by this memory
system.mem_ctrl.num_reads::total                  251                       # Number of read requests responded to by this memory
system.mem_ctrl.num_writes::.writebacks            13                       # Number of write requests responded to by this memory
system.mem_ctrl.num_writes::total                  13                       # Number of write requests responded to by this memory
system.mem_ctrl.bw_read::.cpu.inst          112743079                       # Total read bandwidth from this memory (bytes/s)
system.mem_ctrl.bw_read::.cpu.data           60764127                       # Total read bandwidth from this memory (bytes/s)
system.mem_ctrl.bw_read::.cpu.dcache.prefetcher     10249371                       # Total read bandwidth from this memory (bytes/s)
system.mem_ctrl.bw_read::total              183756577                       # Total read bandwidth from this memory (bytes/s)
system.mem_ctrl.bw_inst_read::.cpu.inst     112743079                       # Instruction read bandwidth from this memory (bytes/s)
system.mem_ctrl.bw_inst_read::total         112743079                       # Instruction read bandwidth from this memory (bytes/s)
system.mem_ctrl.bw_write::.writebacks         9517273                       # Write bandwidth from this memory (bytes/s)
system.mem_ctrl.bw_write::total               9517273                       # Write bandwidth from this memory (bytes/s)
system.mem_ctrl.bw_total::.writebacks         9517273                       # Total bandwidth to/from this memory (bytes/s)
system.mem_ctrl.bw_total::.cpu.inst         112743079                       # Total bandwidth to/from this memory (bytes/s)
system.mem_ctrl.bw_total::.cpu.data          60764127                       # Total bandwidth to/from this memory (bytes/s)
system.mem_ctrl.bw_total::.cpu.dcache.prefetcher     10249371                       # Total bandwidth to/from this memory (bytes/s)
system.mem_ctrl.bw_total::total             193273850                       # Total bandwidth to/from this memory (bytes/s)

---------- End Simulation Statistics   ----------
