
---------- Begin Simulation Statistics ----------
final_tick                                 1147700400                       # Number of ticks from beginning of simulation (restored from checkpoints and never reset)
host_inst_rate                                 162544                       # Simulator instruction rate (inst/s)
host_mem_usage                                4403984                       # Number of bytes of host memory used
host_op_rate                                   281499                       # Simulator op (including micro ops) rate (op/s)
host_seconds                                    13.69                       # Real time elapsed on the host
host_tick_rate                               83827918                       # Simulator tick rate (ticks/s)
sim_freq                                 1000000000000                       # Frequency of simulated ticks
sim_insts                                     2225395                       # Number of instructions simulated
sim_ops                                       3854035                       # Number of ops (including micro ops) simulated
sim_seconds                                  0.001148                       # Number of seconds simulated
sim_ticks                                  1147700400                       # Number of ticks simulated
system.cpu.branchPred.BTBCorrect                    0                       # Number of correct BTB predictions (this stat may not work properly.
system.cpu.branchPred.BTBHitPct              0.000000                       # BTB Hit Percentage
system.cpu.branchPred.BTBHits                       0                       # Number of BTB hits
system.cpu.branchPred.BTBLookups               448145                       # Number of BTB lookups
system.cpu.branchPred.RASInCorrect                  5                       # Number of incorrect RAS predictions.
system.cpu.branchPred.condIncorrect             23993                       # Number of conditional branches incorrect
system.cpu.branchPred.condPredicted            474714                       # Number of conditional branches predicted
system.cpu.branchPred.indirectHits             251425                       # Number of indirect target hits.
system.cpu.branchPred.indirectLookups          448145                       # Number of indirect predictor lookups.
system.cpu.branchPred.indirectMisses           196720                       # Number of indirect misses.
system.cpu.branchPred.lookups                  506342                       # Number of BP lookups
system.cpu.branchPred.usedRAS                   13991                       # Number of times the RAS was used to get a target.
system.cpu.branchPredindirectMispredicted        12009                       # Number of mispredicted indirect branches.
system.cpu.cc_regfile_reads                   2465871                       # number of cc regfile reads
system.cpu.cc_regfile_writes                  2086787                       # number of cc regfile writes
system.cpu.commit.amos                              0                       # Number of atomic instructions committed
system.cpu.commit.branchMispredicts             24052                       # The number of times a branch was mispredicted
system.cpu.commit.branches                     362693                       # Number of branches committed
system.cpu.commit.bw_lim_events                645871                       # number cycles where commit BW limit reached
system.cpu.commit.commitNonSpecStalls             732                       # The number of times commit has been forced to stall to communicate backwards
system.cpu.commit.commitSquashedInsts          887233                       # The number of squashed insts skipped by commit
system.cpu.commit.committedInsts              2225395                       # Number of instructions committed
system.cpu.commit.committedOps                3854035                       # Number of ops (including micro ops) committed
system.cpu.commit.committed_per_cycle::samples      2476241                       # Number of insts commited each cycle
system.cpu.commit.committed_per_cycle::mean     1.556405                       # Number of insts commited each cycle
system.cpu.commit.committed_per_cycle::stdev     1.722757                       # Number of insts commited each cycle
system.cpu.commit.committed_per_cycle::underflows            0      0.00%      0.00% # Number of insts commited each cycle
system.cpu.commit.committed_per_cycle::0      1200816     48.49%     48.49% # Number of insts commited each cycle
system.cpu.commit.committed_per_cycle::1       219144      8.85%     57.34% # Number of insts commited each cycle
system.cpu.commit.committed_per_cycle::2       179823      7.26%     64.61% # Number of insts commited each cycle
system.cpu.commit.committed_per_cycle::3       230587      9.31%     73.92% # Number of insts commited each cycle
system.cpu.commit.committed_per_cycle::4       645871     26.08%    100.00% # Number of insts commited each cycle
system.cpu.commit.committed_per_cycle::overflows            0      0.00%    100.00% # Number of insts commited each cycle
system.cpu.commit.committed_per_cycle::min_value            0                       # Number of insts commited each cycle
system.cpu.commit.committed_per_cycle::max_value            4                       # Number of insts commited each cycle
system.cpu.commit.committed_per_cycle::total      2476241                       # Number of insts commited each cycle
system.cpu.commit.fp_insts                     107504                       # Number of committed floating point instructions.
system.cpu.commit.function_calls                12281                       # Number of function calls committed.
system.cpu.commit.int_insts                   3781951                       # Number of committed integer instructions.
system.cpu.commit.loads                        516526                       # Number of loads committed
system.cpu.commit.membars                           1                       # Number of memory barriers committed
system.cpu.commit.op_class_0::No_OpClass        20315      0.53%      0.53% # Class of committed instruction
system.cpu.commit.op_class_0::IntAlu          3027799     78.56%     79.09% # Class of committed instruction
system.cpu.commit.op_class_0::IntMult            4475      0.12%     79.21% # Class of committed instruction
system.cpu.commit.op_class_0::IntDiv            38152      0.99%     80.19% # Class of committed instruction
system.cpu.commit.op_class_0::FloatAdd           4450      0.12%     80.31% # Class of committed instruction
system.cpu.commit.op_class_0::FloatCmp              0      0.00%     80.31% # Class of committed instruction
system.cpu.commit.op_class_0::FloatCvt           1200      0.03%     80.34% # Class of committed instruction
system.cpu.commit.op_class_0::FloatMult             0      0.00%     80.34% # Class of committed instruction
system.cpu.commit.op_class_0::FloatMultAcc            0      0.00%     80.34% # Class of committed instruction
system.cpu.commit.op_class_0::FloatDiv              0      0.00%     80.34% # Class of committed instruction
system.cpu.commit.op_class_0::FloatMisc             0      0.00%     80.34% # Class of committed instruction
system.cpu.commit.op_class_0::FloatSqrt             0      0.00%     80.34% # Class of committed instruction
system.cpu.commit.op_class_0::SimdAdd            6206      0.16%     80.50% # Class of committed instruction
system.cpu.commit.op_class_0::SimdAddAcc            0      0.00%     80.50% # Class of committed instruction
system.cpu.commit.op_class_0::SimdAlu           17560      0.46%     80.96% # Class of committed instruction
system.cpu.commit.op_class_0::SimdCmp               0      0.00%     80.96% # Class of committed instruction
system.cpu.commit.op_class_0::SimdCvt           12100      0.31%     81.27% # Class of committed instruction
system.cpu.commit.op_class_0::SimdMisc           9707      0.25%     81.52% # Class of committed instruction
system.cpu.commit.op_class_0::SimdMult              0      0.00%     81.52% # Class of committed instruction
system.cpu.commit.op_class_0::SimdMultAcc            0      0.00%     81.52% # Class of committed instruction
system.cpu.commit.op_class_0::SimdShift          1080      0.03%     81.55% # Class of committed instruction
system.cpu.commit.op_class_0::SimdShiftAcc            0      0.00%     81.55% # Class of committed instruction
system.cpu.commit.op_class_0::SimdDiv               0      0.00%     81.55% # Class of committed instruction
system.cpu.commit.op_class_0::SimdSqrt              0      0.00%     81.55% # Class of committed instruction
system.cpu.commit.op_class_0::SimdFloatAdd         4800      0.12%     81.68% # Class of committed instruction
system.cpu.commit.op_class_0::SimdFloatAlu            0      0.00%     81.68% # Class of committed instruction
system.cpu.commit.op_class_0::SimdFloatCmp            0      0.00%     81.68% # Class of committed instruction
system.cpu.commit.op_class_0::SimdFloatCvt         3200      0.08%     81.76% # Class of committed instruction
system.cpu.commit.op_class_0::SimdFloatDiv            2      0.00%     81.76% # Class of committed instruction
system.cpu.commit.op_class_0::SimdFloatMisc            0      0.00%     81.76% # Class of committed instruction
system.cpu.commit.op_class_0::SimdFloatMult         1600      0.04%     81.80% # Class of committed instruction
system.cpu.commit.op_class_0::SimdFloatMultAcc            0      0.00%     81.80% # Class of committed instruction
system.cpu.commit.op_class_0::SimdFloatSqrt            0      0.00%     81.80% # Class of committed instruction
system.cpu.commit.op_class_0::SimdReduceAdd            0      0.00%     81.80% # Class of committed instruction
system.cpu.commit.op_class_0::SimdReduceAlu            0      0.00%     81.80% # Class of committed instruction
system.cpu.commit.op_class_0::SimdReduceCmp            0      0.00%     81.80% # Class of committed instruction
system.cpu.commit.op_class_0::SimdFloatReduceAdd            0      0.00%     81.80% # Class of committed instruction
system.cpu.commit.op_class_0::SimdFloatReduceCmp            0      0.00%     81.80% # Class of committed instruction
system.cpu.commit.op_class_0::SimdAes               0      0.00%     81.80% # Class of committed instruction
system.cpu.commit.op_class_0::SimdAesMix            0      0.00%     81.80% # Class of committed instruction
system.cpu.commit.op_class_0::SimdSha1Hash            0      0.00%     81.80% # Class of committed instruction
system.cpu.commit.op_class_0::SimdSha1Hash2            0      0.00%     81.80% # Class of committed instruction
system.cpu.commit.op_class_0::SimdSha256Hash            0      0.00%     81.80% # Class of committed instruction
system.cpu.commit.op_class_0::SimdSha256Hash2            0      0.00%     81.80% # Class of committed instruction
system.cpu.commit.op_class_0::SimdShaSigma2            0      0.00%     81.80% # Class of committed instruction
system.cpu.commit.op_class_0::SimdShaSigma3            0      0.00%     81.80% # Class of committed instruction
system.cpu.commit.op_class_0::SimdPredAlu            0      0.00%     81.80% # Class of committed instruction
system.cpu.commit.op_class_0::MemRead          490221     12.72%     94.52% # Class of committed instruction
system.cpu.commit.op_class_0::MemWrite         166390      4.32%     98.84% # Class of committed instruction
system.cpu.commit.op_class_0::FloatMemRead        26305      0.68%     99.52% # Class of committed instruction
system.cpu.commit.op_class_0::FloatMemWrite        18473      0.48%    100.00% # Class of committed instruction
system.cpu.commit.op_class_0::IprAccess             0      0.00%    100.00% # Class of committed instruction
system.cpu.commit.op_class_0::InstPrefetch            0      0.00%    100.00% # Class of committed instruction
system.cpu.commit.op_class_0::total           3854035                       # Class of committed instruction
system.cpu.commit.refs                         701389                       # Number of memory references committed
system.cpu.commit.swp_count                         0                       # Number of s/w prefetches committed
system.cpu.commit.vec_insts                         0                       # Number of committed Vector instructions.
system.cpu.committedInsts                     2225395                       # Number of Instructions Simulated
system.cpu.committedOps                       3854035                       # Number of Ops (including micro ops) Simulated
system.cpu.cpi                               1.289323                       # CPI: Cycles Per Instruction
system.cpu.cpi_total                         1.289323                       # CPI: Total CPI of All Threads
system.cpu.dcache.prefetcher.num_hwpf_issued         8484                       # number of hwpf issued
system.cpu.dcache.prefetcher.pfBufferHit        34303                       # number of redundant prefetches already in prefetch queue
system.cpu.dcache.prefetcher.pfIdentified        49856                       # number of prefetch candidates identified
system.cpu.dcache.prefetcher.pfInCache              0                       # number of redundant prefetches already in cache/mshr dropped
system.cpu.dcache.prefetcher.pfRemovedFull            0                       # number of prefetches dropped due to prefetch queue size
system.cpu.dcache.prefetcher.pfSpanPage          4872                       # number of prefetches that crossed the page
system.cpu.decode.BlockedCycles               1089604                       # Number of cycles decode is blocked
system.cpu.decode.DecodedInsts                4954972                       # Number of instructions handled by decode
system.cpu.decode.IdleCycles                   306221                       # Number of cycles decode is idle
system.cpu.decode.RunCycles                   1202352                       # Number of cycles decode is running
system.cpu.decode.SquashCycles                  24122                       # Number of cycles decode is squashing
system.cpu.decode.UnblockCycles                 96206                       # Number of cycles decode is unblocking
system.cpu.dtb.rdAccesses                      600521                       # TLB accesses on read requests
system.cpu.dtb.rdMisses                          2104                       # TLB misses on read requests
system.cpu.dtb.wrAccesses                      204559                       # TLB accesses on write requests
system.cpu.dtb.wrMisses                           170                       # TLB misses on write requests
system.cpu.fetch.Branches                      506342                       # Number of branches that fetch encountered
system.cpu.fetch.CacheLines                    257402                       # Number of cache lines fetched
system.cpu.fetch.Cycles                       2347657                       # Number of cycles fetch has run and was not squashing or blocked
system.cpu.fetch.IcacheSquashes                  4608                       # Number of outstanding Icache misses that were squashed
system.cpu.fetch.IcacheWaitRetryStallCycles           17                       # Number of stall cycles due to full MSHR
system.cpu.fetch.Insts                        2992075                       # Number of instructions fetch has processed
system.cpu.fetch.MiscStallCycles                   67                       # Number of cycles fetch has spent waiting on interrupts, or bad addresses, or out of MSHRs
system.cpu.fetch.PendingQuiesceStallCycles           22                       # Number of stall cycles due to pending quiesce instructions
system.cpu.fetch.PendingTrapStallCycles           487                       # Number of stall cycles due to pending traps
system.cpu.fetch.SquashCycles                   48244                       # Number of cycles fetch has spent squashing
system.cpu.fetch.branchRate                  0.176472                       # Number of branch fetches per cycle
system.cpu.fetch.icacheStallCycles             346133                       # Number of cycles fetch is stalled on an Icache miss
system.cpu.fetch.predictedBranches             265416                       # Number of branches that fetch has predicted taken
system.cpu.fetch.rate                        1.042807                       # Number of inst fetches per cycle
system.cpu.fetch.rateDist::samples            2718505                       # Number of instructions fetched each cycle (Total)
system.cpu.fetch.rateDist::mean              1.923005                       # Number of instructions fetched each cycle (Total)
system.cpu.fetch.rateDist::stdev             1.928126                       # Number of instructions fetched each cycle (Total)
system.cpu.fetch.rateDist::underflows               0      0.00%      0.00% # Number of instructions fetched each cycle (Total)
system.cpu.fetch.rateDist::0                  1298329     47.76%     47.76% # Number of instructions fetched each cycle (Total)
system.cpu.fetch.rateDist::1                    80387      2.96%     50.72% # Number of instructions fetched each cycle (Total)
system.cpu.fetch.rateDist::2                    62644      2.30%     53.02% # Number of instructions fetched each cycle (Total)
system.cpu.fetch.rateDist::3                    86555      3.18%     56.20% # Number of instructions fetched each cycle (Total)
system.cpu.fetch.rateDist::4                  1190590     43.80%    100.00% # Number of instructions fetched each cycle (Total)
system.cpu.fetch.rateDist::overflows                0      0.00%    100.00% # Number of instructions fetched each cycle (Total)
system.cpu.fetch.rateDist::min_value                0                       # Number of instructions fetched each cycle (Total)
system.cpu.fetch.rateDist::max_value                4                       # Number of instructions fetched each cycle (Total)
system.cpu.fetch.rateDist::total              2718505                       # Number of instructions fetched each cycle (Total)
system.cpu.fp_regfile_reads                    166879                       # number of floating regfile reads
system.cpu.fp_regfile_writes                    93429                       # number of floating regfile writes
system.cpu.fuPool.fu_ticks_busy::IntALU(0)    230541600                       # Total ticks fu was busy
system.cpu.fuPool.fu_ticks_busy::IntALU(1)    230541200                       # Total ticks fu was busy
system.cpu.fuPool.fu_ticks_busy::IntALU(2)    230541200                       # Total ticks fu was busy
system.cpu.fuPool.fu_ticks_busy::IntALU(3)    230541200                       # Total ticks fu was busy
system.cpu.fuPool.fu_ticks_busy::IntALU(4)    230541200                       # Total ticks fu was busy
system.cpu.fuPool.fu_ticks_busy::IntALU(5)    230541200                       # Total ticks fu was busy
system.cpu.fuPool.fu_ticks_busy::IntMultDiv(0)      9272000                       # Total ticks fu was busy
system.cpu.fuPool.fu_ticks_busy::IntMultDiv(1)      9271200                       # Total ticks fu was busy
system.cpu.fuPool.fu_ticks_busy::FP_ALU(0)       719200                       # Total ticks fu was busy
system.cpu.fuPool.fu_ticks_busy::FP_ALU(1)       719200                       # Total ticks fu was busy
system.cpu.fuPool.fu_ticks_busy::FP_ALU(2)       719200                       # Total ticks fu was busy
system.cpu.fuPool.fu_ticks_busy::FP_ALU(3)       719200                       # Total ticks fu was busy
system.cpu.fuPool.fu_ticks_busy::FP_MultDiv(0)            0                       # Total ticks fu was busy
system.cpu.fuPool.fu_ticks_busy::FP_MultDiv(1)            0                       # Total ticks fu was busy
system.cpu.fuPool.fu_ticks_busy::SIMD_Unit(0)      6351200                       # Total ticks fu was busy
system.cpu.fuPool.fu_ticks_busy::SIMD_Unit(1)      6393200                       # Total ticks fu was busy
system.cpu.fuPool.fu_ticks_busy::SIMD_Unit(2)      6393600                       # Total ticks fu was busy
system.cpu.fuPool.fu_ticks_busy::SIMD_Unit(3)      6350400                       # Total ticks fu was busy
system.cpu.fuPool.fu_ticks_busy::PredALU(0)            0                       # Total ticks fu was busy
system.cpu.fuPool.fu_ticks_busy::RdWrPort(0)     81949200                       # Total ticks fu was busy
system.cpu.fuPool.fu_ticks_busy::RdWrPort(1)     81947200                       # Total ticks fu was busy
system.cpu.fuPool.fu_ticks_busy::RdWrPort(2)     81975600                       # Total ticks fu was busy
system.cpu.fuPool.fu_ticks_busy::RdWrPort(3)     82016400                       # Total ticks fu was busy
system.cpu.fuPool.fu_ticks_busy::IprPort(0)            0                       # Total ticks fu was busy
system.cpu.fuPool.fu_ticks_busy::total     1758044400                       # Total ticks fu was busy
system.cpu.icache.prefetcher.num_hwpf_issued            0                       # number of hwpf issued
system.cpu.icache.prefetcher.pfBufferHit            0                       # number of redundant prefetches already in prefetch queue
system.cpu.icache.prefetcher.pfIdentified            0                       # number of prefetch candidates identified
system.cpu.icache.prefetcher.pfInCache              0                       # number of redundant prefetches already in cache/mshr dropped
system.cpu.icache.prefetcher.pfRemovedFull            0                       # number of prefetches dropped due to prefetch queue size
system.cpu.icache.prefetcher.pfSpanPage             0                       # number of prefetches that crossed the page
system.cpu.idleCycles                          150747                       # Total number of cycles that the CPU has spent unscheduled due to idling
system.cpu.iew.branchMispredicts                28373                       # Number of branch mispredicts detected at execute
system.cpu.iew.exec_branches                   392903                       # Number of branches executed
system.cpu.iew.exec_nop                             0                       # number of nop insts executed
system.cpu.iew.exec_rate                     1.529042                       # Inst execution rate
system.cpu.iew.exec_refs                       806820                       # number of memory reference insts executed
system.cpu.iew.exec_stores                     204551                       # Number of stores executed
system.cpu.iew.exec_swp                             0                       # number of swp insts executed
system.cpu.iew.iewBlockCycles                  703555                       # Number of cycles IEW is blocking
system.cpu.iew.iewDispLoadInsts                632900                       # Number of dispatched load instructions
system.cpu.iew.iewDispNonSpecInsts                923                       # Number of dispatched non-speculative instructions
system.cpu.iew.iewDispSquashedInsts               570                       # Number of squashed instructions skipped by dispatch
system.cpu.iew.iewDispStoreInsts               214810                       # Number of dispatched store instructions
system.cpu.iew.iewDispatchedInsts             4741221                       # Number of instructions dispatched to IQ
system.cpu.iew.iewExecLoadInsts                602269                       # Number of load instructions executed
system.cpu.iew.iewExecSquashedInsts             34238                       # Number of squashed instructions skipped in execute
system.cpu.iew.iewExecutedInsts               4387207                       # Number of executed instructions
system.cpu.iew.iewIQFullEvents                   3410                       # Number of times the IQ has become full, causing a stall
system.cpu.iew.iewIdleCycles                        0                       # Number of cycles IEW is idle
system.cpu.iew.iewLSQFullEvents                 15524                       # Number of times the LSQ has become full, causing a stall
system.cpu.iew.iewSquashCycles                  24122                       # Number of cycles IEW is squashing
system.cpu.iew.iewUnblockCycles                 21824                       # Number of cycles IEW is unblocking
system.cpu.iew.lsq.thread0.blockedLoads             0                       # Number of blocked loads due to partial load-store forwarding
system.cpu.iew.lsq.thread0.cacheBlocked           621                       # Number of times an access to memory failed due to the cache being blocked
system.cpu.iew.lsq.thread0.forwLoads            45018                       # Number of loads that had data forwarded from stores
system.cpu.iew.lsq.thread0.ignoredResponses          227                       # Number of memory responses ignored because the instruction is squashed
system.cpu.iew.lsq.thread0.invAddrLoads             0                       # Number of loads ignored due to an invalid address
system.cpu.iew.lsq.thread0.invAddrSwpfs             0                       # Number of software prefetches ignored due to an invalid address
system.cpu.iew.lsq.thread0.memOrderViolation           84                       # Number of memory ordering violations
system.cpu.iew.lsq.thread0.rescheduledLoads            0                       # Number of loads that were rescheduled
system.cpu.iew.lsq.thread0.squashedLoads       116372                       # Number of loads squashed
system.cpu.iew.lsq.thread0.squashedStores        29946                       # Number of stores squashed
system.cpu.iew.memOrderViolationEvents             84                       # Number of memory order violations
system.cpu.iew.predictedNotTakenIncorrect        20305                       # Number of branches that were predicted not taken incorrectly
system.cpu.iew.predictedTakenIncorrect           8068                       # Number of branches that were predicted taken incorrectly
system.cpu.iew.wb_consumers                   6181502                       # num instructions consuming a value
system.cpu.iew.wb_count                       4364864                       # cumulative count of insts written-back
system.cpu.iew.wb_fanout                     0.565729                       # average fanout of values written-back
system.cpu.iew.wb_producers                   3497052                       # num instructions producing a value
system.cpu.iew.wb_rate                       1.521255                       # insts written-back per cycle
system.cpu.iew.wb_sent                        4371836                       # cumulative count of insts sent to commit
system.cpu.int_regfile_reads                  6783901                       # number of integer regfile reads
system.cpu.int_regfile_writes                 3753976                       # number of integer regfile writes
system.cpu.ipc                               0.775601                       # IPC: Instructions Per Cycle
system.cpu.ipc_total                         0.775601                       # IPC: Total IPC of All Threads
system.cpu.iq.FU_type_0::No_OpClass             26334      0.60%      0.60% # Type of FU issued
system.cpu.iq.FU_type_0::IntAlu               3458121     78.21%     78.81% # Type of FU issued
system.cpu.iq.FU_type_0::IntMult                 4511      0.10%     78.91% # Type of FU issued
system.cpu.iq.FU_type_0::IntDiv                 41847      0.95%     79.86% # Type of FU issued
system.cpu.iq.FU_type_0::FloatAdd                5964      0.13%     79.99% # Type of FU issued
system.cpu.iq.FU_type_0::FloatCmp                   0      0.00%     79.99% # Type of FU issued
system.cpu.iq.FU_type_0::FloatCvt                1228      0.03%     80.02% # Type of FU issued
system.cpu.iq.FU_type_0::FloatMult                  0      0.00%     80.02% # Type of FU issued
system.cpu.iq.FU_type_0::FloatMultAcc               0      0.00%     80.02% # Type of FU issued
system.cpu.iq.FU_type_0::FloatDiv                   0      0.00%     80.02% # Type of FU issued
system.cpu.iq.FU_type_0::FloatMisc                  0      0.00%     80.02% # Type of FU issued
system.cpu.iq.FU_type_0::FloatSqrt                  0      0.00%     80.02% # Type of FU issued
system.cpu.iq.FU_type_0::SimdAdd                 6763      0.15%     80.17% # Type of FU issued
system.cpu.iq.FU_type_0::SimdAddAcc                 0      0.00%     80.17% # Type of FU issued
system.cpu.iq.FU_type_0::SimdAlu                21210      0.48%     80.65% # Type of FU issued
system.cpu.iq.FU_type_0::SimdCmp                    0      0.00%     80.65% # Type of FU issued
system.cpu.iq.FU_type_0::SimdCvt                13752      0.31%     80.96% # Type of FU issued
system.cpu.iq.FU_type_0::SimdMisc               10211      0.23%     81.19% # Type of FU issued
system.cpu.iq.FU_type_0::SimdMult                   0      0.00%     81.19% # Type of FU issued
system.cpu.iq.FU_type_0::SimdMultAcc                0      0.00%     81.19% # Type of FU issued
system.cpu.iq.FU_type_0::SimdShift               2170      0.05%     81.24% # Type of FU issued
system.cpu.iq.FU_type_0::SimdShiftAcc               0      0.00%     81.24% # Type of FU issued
system.cpu.iq.FU_type_0::SimdDiv                    0      0.00%     81.24% # Type of FU issued
system.cpu.iq.FU_type_0::SimdSqrt                   0      0.00%     81.24% # Type of FU issued
system.cpu.iq.FU_type_0::SimdFloatAdd            4803      0.11%     81.35% # Type of FU issued
system.cpu.iq.FU_type_0::SimdFloatAlu               0      0.00%     81.35% # Type of FU issued
system.cpu.iq.FU_type_0::SimdFloatCmp               0      0.00%     81.35% # Type of FU issued
system.cpu.iq.FU_type_0::SimdFloatCvt            3201      0.07%     81.42% # Type of FU issued
system.cpu.iq.FU_type_0::SimdFloatDiv              11      0.00%     81.42% # Type of FU issued
system.cpu.iq.FU_type_0::SimdFloatMisc              0      0.00%     81.42% # Type of FU issued
system.cpu.iq.FU_type_0::SimdFloatMult           1600      0.04%     81.46% # Type of FU issued
system.cpu.iq.FU_type_0::SimdFloatMultAcc            0      0.00%     81.46% # Type of FU issued
system.cpu.iq.FU_type_0::SimdFloatSqrt              0      0.00%     81.46% # Type of FU issued
system.cpu.iq.FU_type_0::SimdReduceAdd              0      0.00%     81.46% # Type of FU issued
system.cpu.iq.FU_type_0::SimdReduceAlu              0      0.00%     81.46% # Type of FU issued
system.cpu.iq.FU_type_0::SimdReduceCmp              0      0.00%     81.46% # Type of FU issued
system.cpu.iq.FU_type_0::SimdFloatReduceAdd            0      0.00%     81.46% # Type of FU issued
system.cpu.iq.FU_type_0::SimdFloatReduceCmp            0      0.00%     81.46% # Type of FU issued
system.cpu.iq.FU_type_0::SimdAes                    0      0.00%     81.46% # Type of FU issued
system.cpu.iq.FU_type_0::SimdAesMix                 0      0.00%     81.46% # Type of FU issued
system.cpu.iq.FU_type_0::SimdSha1Hash               0      0.00%     81.46% # Type of FU issued
system.cpu.iq.FU_type_0::SimdSha1Hash2              0      0.00%     81.46% # Type of FU issued
system.cpu.iq.FU_type_0::SimdSha256Hash             0      0.00%     81.46% # Type of FU issued
system.cpu.iq.FU_type_0::SimdSha256Hash2            0      0.00%     81.46% # Type of FU issued
system.cpu.iq.FU_type_0::SimdShaSigma2              0      0.00%     81.46% # Type of FU issued
system.cpu.iq.FU_type_0::SimdShaSigma3              0      0.00%     81.46% # Type of FU issued
system.cpu.iq.FU_type_0::SimdPredAlu                0      0.00%     81.46% # Type of FU issued
system.cpu.iq.FU_type_0::MemRead               580238     13.12%     94.58% # Type of FU issued
system.cpu.iq.FU_type_0::MemWrite              187433      4.24%     98.82% # Type of FU issued
system.cpu.iq.FU_type_0::FloatMemRead           32297      0.73%     99.55% # Type of FU issued
system.cpu.iq.FU_type_0::FloatMemWrite          19755      0.45%    100.00% # Type of FU issued
system.cpu.iq.FU_type_0::IprAccess                  0      0.00%    100.00% # Type of FU issued
system.cpu.iq.FU_type_0::InstPrefetch               0      0.00%    100.00% # Type of FU issued
system.cpu.iq.FU_type_0::total                4421449                       # Type of FU issued
system.cpu.iq.fp_alu_accesses                  123954                       # Number of floating point alu accesses
system.cpu.iq.fp_inst_queue_reads              249285                       # Number of floating instruction queue reads
system.cpu.iq.fp_inst_queue_wakeup_accesses       120417                       # Number of floating instruction queue wakeup accesses
system.cpu.iq.fp_inst_queue_writes             165916                       # Number of floating instruction queue writes
system.cpu.iq.fu_busy_cnt                           0                       # FU busy when requested
system.cpu.iq.fu_busy_rate                          0                       # FU busy rate (busy events/executed inst)
system.cpu.iq.fu_full::No_OpClass                   0                       # attempts to use FU when none available
system.cpu.iq.fu_full::IntAlu                       0                       # attempts to use FU when none available
system.cpu.iq.fu_full::IntMult                      0                       # attempts to use FU when none available
system.cpu.iq.fu_full::IntDiv                       0                       # attempts to use FU when none available
system.cpu.iq.fu_full::FloatAdd                     0                       # attempts to use FU when none available
system.cpu.iq.fu_full::FloatCmp                     0                       # attempts to use FU when none available
system.cpu.iq.fu_full::FloatCvt                     0                       # attempts to use FU when none available
system.cpu.iq.fu_full::FloatMult                    0                       # attempts to use FU when none available
system.cpu.iq.fu_full::FloatMultAcc                 0                       # attempts to use FU when none available
system.cpu.iq.fu_full::FloatDiv                     0                       # attempts to use FU when none available
system.cpu.iq.fu_full::FloatMisc                    0                       # attempts to use FU when none available
system.cpu.iq.fu_full::FloatSqrt                    0                       # attempts to use FU when none available
system.cpu.iq.fu_full::SimdAdd                      0                       # attempts to use FU when none available
system.cpu.iq.fu_full::SimdAddAcc                   0                       # attempts to use FU when none available
system.cpu.iq.fu_full::SimdAlu                      0                       # attempts to use FU when none available
system.cpu.iq.fu_full::SimdCmp                      0                       # attempts to use FU when none available
system.cpu.iq.fu_full::SimdCvt                      0                       # attempts to use FU when none available
system.cpu.iq.fu_full::SimdMisc                     0                       # attempts to use FU when none available
system.cpu.iq.fu_full::SimdMult                     0                       # attempts to use FU when none available
system.cpu.iq.fu_full::SimdMultAcc                  0                       # attempts to use FU when none available
system.cpu.iq.fu_full::SimdShift                    0                       # attempts to use FU when none available
system.cpu.iq.fu_full::SimdShiftAcc                 0                       # attempts to use FU when none available
system.cpu.iq.fu_full::SimdDiv                      0                       # attempts to use FU when none available
system.cpu.iq.fu_full::SimdSqrt                     0                       # attempts to use FU when none available
system.cpu.iq.fu_full::SimdFloatAdd                 0                       # attempts to use FU when none available
system.cpu.iq.fu_full::SimdFloatAlu                 0                       # attempts to use FU when none available
system.cpu.iq.fu_full::SimdFloatCmp                 0                       # attempts to use FU when none available
system.cpu.iq.fu_full::SimdFloatCvt                 0                       # attempts to use FU when none available
system.cpu.iq.fu_full::SimdFloatDiv                 0                       # attempts to use FU when none available
system.cpu.iq.fu_full::SimdFloatMisc                0                       # attempts to use FU when none available
system.cpu.iq.fu_full::SimdFloatMult                0                       # attempts to use FU when none available
system.cpu.iq.fu_full::SimdFloatMultAcc             0                       # attempts to use FU when none available
system.cpu.iq.fu_full::SimdFloatSqrt                0                       # attempts to use FU when none available
system.cpu.iq.fu_full::SimdReduceAdd                0                       # attempts to use FU when none available
system.cpu.iq.fu_full::SimdReduceAlu                0                       # attempts to use FU when none available
system.cpu.iq.fu_full::SimdReduceCmp                0                       # attempts to use FU when none available
system.cpu.iq.fu_full::SimdFloatReduceAdd            0                       # attempts to use FU when none available
system.cpu.iq.fu_full::SimdFloatReduceCmp            0                       # attempts to use FU when none available
system.cpu.iq.fu_full::SimdAes                      0                       # attempts to use FU when none available
system.cpu.iq.fu_full::SimdAesMix                   0                       # attempts to use FU when none available
system.cpu.iq.fu_full::SimdSha1Hash                 0                       # attempts to use FU when none available
system.cpu.iq.fu_full::SimdSha1Hash2                0                       # attempts to use FU when none available
system.cpu.iq.fu_full::SimdSha256Hash               0                       # attempts to use FU when none available
system.cpu.iq.fu_full::SimdSha256Hash2              0                       # attempts to use FU when none available
system.cpu.iq.fu_full::SimdShaSigma2                0                       # attempts to use FU when none available
system.cpu.iq.fu_full::SimdShaSigma3                0                       # attempts to use FU when none available
system.cpu.iq.fu_full::SimdPredAlu                  0                       # attempts to use FU when none available
system.cpu.iq.fu_full::MemRead                      0                       # attempts to use FU when none available
system.cpu.iq.fu_full::MemWrite                     0                       # attempts to use FU when none available
system.cpu.iq.fu_full::FloatMemRead                 0                       # attempts to use FU when none available
system.cpu.iq.fu_full::FloatMemWrite                0                       # attempts to use FU when none available
system.cpu.iq.fu_full::IprAccess                    0                       # attempts to use FU when none available
system.cpu.iq.fu_full::InstPrefetch                 0                       # attempts to use FU when none available
system.cpu.iq.int_alu_accesses                4271161                       # Number of integer alu accesses
system.cpu.iq.int_inst_queue_reads           11330529                       # Number of integer instruction queue reads
system.cpu.iq.int_inst_queue_wakeup_accesses      4244447                       # Number of integer instruction queue wakeup accesses
system.cpu.iq.int_inst_queue_writes           5462563                       # Number of integer instruction queue writes
system.cpu.iq.iqInstsAdded                    4740116                       # Number of instructions added to the IQ (excludes non-spec)
system.cpu.iq.iqInstsIssued                   4421449                       # Number of instructions issued
system.cpu.iq.iqNonSpecInstsAdded                1105                       # Number of non-speculative instructions added to the IQ
system.cpu.iq.iqSquashedInstsExamined          887175                       # Number of squashed instructions iterated over during squash; mainly for profiling
system.cpu.iq.iqSquashedInstsIssued             18415                       # Number of squashed instructions issued
system.cpu.iq.iqSquashedNonSpecRemoved            373                       # Number of squashed non-spec instructions that were removed
system.cpu.iq.iqSquashedOperandsExamined      1324011                       # Number of squashed operands that are examined and possibly removed from graph
system.cpu.iq.issued_per_cycle::samples       2718505                       # Number of insts issued each cycle
system.cpu.iq.issued_per_cycle::mean         1.626427                       # Number of insts issued each cycle
system.cpu.iq.issued_per_cycle::stdev        1.664435                       # Number of insts issued each cycle
system.cpu.iq.issued_per_cycle::underflows            0      0.00%      0.00% # Number of insts issued each cycle
system.cpu.iq.issued_per_cycle::0             1213455     44.64%     44.64% # Number of insts issued each cycle
system.cpu.iq.issued_per_cycle::1              199133      7.33%     51.96% # Number of insts issued each cycle
system.cpu.iq.issued_per_cycle::2              319006     11.73%     63.70% # Number of insts issued each cycle
system.cpu.iq.issued_per_cycle::3              363340     13.37%     77.06% # Number of insts issued each cycle
system.cpu.iq.issued_per_cycle::4              623571     22.94%    100.00% # Number of insts issued each cycle
system.cpu.iq.issued_per_cycle::overflows            0      0.00%    100.00% # Number of insts issued each cycle
system.cpu.iq.issued_per_cycle::min_value            0                       # Number of insts issued each cycle
system.cpu.iq.issued_per_cycle::max_value            4                       # Number of insts issued each cycle
system.cpu.iq.issued_per_cycle::total         2718505                       # Number of insts issued each cycle
system.cpu.iq.rate                           1.540976                       # Inst issue rate
system.cpu.iq.vec_alu_accesses                      0                       # Number of vector alu accesses
system.cpu.iq.vec_inst_queue_reads                  0                       # Number of vector instruction queue reads
system.cpu.iq.vec_inst_queue_wakeup_accesses            0                       # Number of vector instruction queue wakeup accesses
system.cpu.iq.vec_inst_queue_writes                 0                       # Number of vector instruction queue writes
system.cpu.itb.rdAccesses                           0                       # TLB accesses on read requests
system.cpu.itb.rdMisses                             0                       # TLB misses on read requests
system.cpu.itb.wrAccesses                      257480                       # TLB accesses on write requests
system.cpu.itb.wrMisses                           320                       # TLB misses on write requests
system.cpu.memDep0.conflictingLoads             16483                       # Number of conflicting loads.
system.cpu.memDep0.conflictingStores             7185                       # Number of conflicting stores.
system.cpu.memDep0.insertedLoads               632900                       # Number of loads inserted to the mem dependence unit.
system.cpu.memDep0.insertedStores              214810                       # Number of stores inserted to the mem dependence unit.
system.cpu.misc_regfile_reads                 1634793                       # number of misc regfile reads
system.cpu.misc_regfile_writes                    675                       # number of misc regfile writes
system.cpu.numCycles                          2869252                       # number of cpu cycles simulated
system.cpu.numWorkItemsCompleted                    0                       # number of work items this cpu completed
system.cpu.numWorkItemsStarted                      0                       # number of work items this cpu started
system.cpu.process.numSyscalls                     56                       # Number of system calls
system.cpu.rename.BlockCycles                  863984                       # Number of cycles rename is blocking
system.cpu.rename.CommittedMaps               5309447                       # Number of HB maps that are committed
system.cpu.rename.FullRegisterEvents               24                       # Number of times there has been no free registers
system.cpu.rename.IQFullEvents                  56510                       # Number of times rename has blocked due to IQ full
system.cpu.rename.IdleCycles                   360487                       # Number of cycles rename is idle
system.cpu.rename.LQFullEvents                  14635                       # Number of times rename has blocked due to LQ full
system.cpu.rename.ROBFullEvents                  4827                       # Number of times rename has blocked due to ROB full
system.cpu.rename.RenameLookups              12685408                       # Number of register rename lookups that rename has made
system.cpu.rename.RenamedInsts                4880698                       # Number of instructions processed by rename
system.cpu.rename.RenamedOperands             6702381                       # Number of destination operands rename has renamed
system.cpu.rename.RunCycles                   1235136                       # Number of cycles rename is running
system.cpu.rename.SQFullEvents                 104885                       # Number of times rename has blocked due to SQ full
system.cpu.rename.SquashCycles                  24122                       # Number of cycles rename is squashing
system.cpu.rename.UnblockCycles                215330                       # Number of cycles rename is unblocking
system.cpu.rename.UndoneMaps                  1392908                       # Number of HB maps that are undone due to squashing
system.cpu.rename.fp_rename_lookups            203202                       # Number of floating rename lookups
system.cpu.rename.int_rename_lookups          7723024                       # Number of integer rename lookups
system.cpu.rename.serializeStallCycles          19446                       # count of cycles rename stalled for serializing inst
system.cpu.rename.serializingInsts                864                       # count of serializing insts renamed
system.cpu.rename.skidInsts                    231640                       # count of insts added to the skid buffer
system.cpu.rename.tempSerializingInsts            913                       # count of temporary serializing insts renamed
system.cpu.rob.rob_reads                      6571638                       # The number of ROB reads
system.cpu.rob.rob_writes                     9725702                       # The number of ROB writes
system.cpu.timesIdled                            1493                       # Number of times that the entire CPU went into an idle state and unscheduled itself
system.l2bus.snoop_filter.hit_multi_requests            9                       # Number of requests hitting in the snoop filter with multiple (>1) holders of the requested data.
system.l2bus.snoop_filter.hit_multi_snoops            1                       # Number of snoops hitting in the snoop filter with multiple (>1) holders of the requested data.
system.l2bus.snoop_filter.hit_single_requests        19048                       # Number of requests hitting in the snoop filter with a single holder of the requested data.
system.l2bus.snoop_filter.hit_single_snoops          458                       # Number of snoops hitting in the snoop filter with a single holder of the requested data.
system.l2bus.snoop_filter.tot_requests          39376                       # Total number of requests made to the snoop filter.
system.l2bus.snoop_filter.tot_snoops              459                       # Total number of snoops made to the snoop filter.
system.l2cache.prefetcher.num_hwpf_issued          958                       # number of hwpf issued
system.l2cache.prefetcher.pfBufferHit               0                       # number of redundant prefetches already in prefetch queue
system.l2cache.prefetcher.pfIdentified            959                       # number of prefetch candidates identified
system.l2cache.prefetcher.pfInCache                 0                       # number of redundant prefetches already in cache/mshr dropped
system.l2cache.prefetcher.pfRemovedFull             0                       # number of prefetches dropped due to prefetch queue size
system.l2cache.prefetcher.pfSpanPage              109                       # number of prefetches that crossed the page
system.membus.snoop_filter.hit_multi_requests            0                       # Number of requests hitting in the snoop filter with multiple (>1) holders of the requested data.
system.membus.snoop_filter.hit_multi_snoops            0                       # Number of snoops hitting in the snoop filter with multiple (>1) holders of the requested data.
system.membus.snoop_filter.hit_single_requests         9887                       # Number of requests hitting in the snoop filter with a single holder of the requested data.
system.membus.snoop_filter.hit_single_snoops            0                       # Number of snoops hitting in the snoop filter with a single holder of the requested data.
system.membus.snoop_filter.tot_requests         23894                       # Total number of requests made to the snoop filter.
system.membus.snoop_filter.tot_snoops               0                       # Total number of snoops made to the snoop filter.
system.membus.pwrStateResidencyTicks::UNDEFINED   1147700400                       # Cumulative time (in ticks) in various power states
system.membus.trans_dist::ReadResp              12366                       # Transaction distribution
system.membus.trans_dist::WritebackDirty         1381                       # Transaction distribution
system.membus.trans_dist::CleanEvict             8506                       # Transaction distribution
system.membus.trans_dist::ReadExReq              1641                       # Transaction distribution
system.membus.trans_dist::ReadExResp             1641                       # Transaction distribution
system.membus.trans_dist::ReadSharedReq         12366                       # Transaction distribution
system.membus.pkt_count_system.l2cache.mem_side::system.mem_ctrl.port        37901                       # Packet count per connected master and slave (bytes)
system.membus.pkt_count_system.l2cache.mem_side::total        37901                       # Packet count per connected master and slave (bytes)
system.membus.pkt_count::total                  37901                       # Packet count per connected master and slave (bytes)
system.membus.pkt_size_system.l2cache.mem_side::system.mem_ctrl.port       984832                       # Cumulative packet size per connected master and slave (bytes)
system.membus.pkt_size_system.l2cache.mem_side::total       984832                       # Cumulative packet size per connected master and slave (bytes)
system.membus.pkt_size::total                  984832                       # Cumulative packet size per connected master and slave (bytes)
system.membus.snoops                                0                       # Total snoops (count)
system.membus.snoopTraffic                          0                       # Total snoop traffic (bytes)
system.membus.snoop_fanout::samples             14007                       # Request fanout histogram
system.membus.snoop_fanout::mean                    0                       # Request fanout histogram
system.membus.snoop_fanout::stdev                   0                       # Request fanout histogram
system.membus.snoop_fanout::underflows              0      0.00%      0.00% # Request fanout histogram
system.membus.snoop_fanout::0                   14007    100.00%    100.00% # Request fanout histogram
system.membus.snoop_fanout::1                       0      0.00%    100.00% # Request fanout histogram
system.membus.snoop_fanout::overflows               0      0.00%    100.00% # Request fanout histogram
system.membus.snoop_fanout::min_value               0                       # Request fanout histogram
system.membus.snoop_fanout::max_value               0                       # Request fanout histogram
system.membus.snoop_fanout::total               14007                       # Request fanout histogram
system.membus.reqLayer2.occupancy            11810008                       # Layer occupancy (ticks)
system.membus.reqLayer2.utilization               1.0                       # Layer utilization (%)
system.membus.respLayer0.occupancy           30405792                       # Layer occupancy (ticks)
system.membus.respLayer0.utilization              2.6                       # Layer utilization (%)
system.l2bus.pwrStateResidencyTicks::UNDEFINED   1147700400                       # Cumulative time (in ticks) in various power states
system.l2bus.trans_dist::ReadResp               17930                       # Transaction distribution
system.l2bus.trans_dist::WritebackDirty          4346                       # Transaction distribution
system.l2bus.trans_dist::CleanEvict             24686                       # Transaction distribution
system.l2bus.trans_dist::HardPFReq               1346                       # Transaction distribution
system.l2bus.trans_dist::ReadExReq               2398                       # Transaction distribution
system.l2bus.trans_dist::ReadExResp              2398                       # Transaction distribution
system.l2bus.trans_dist::ReadSharedReq          17930                       # Transaction distribution
system.l2bus.pkt_count_system.cpu.icache.mem_side::system.l2cache.cpu_side         7816                       # Packet count per connected master and slave (bytes)
system.l2bus.pkt_count_system.cpu.dcache.mem_side::system.l2cache.cpu_side        51887                       # Packet count per connected master and slave (bytes)
system.l2bus.pkt_count::total                   59703                       # Packet count per connected master and slave (bytes)
system.l2bus.pkt_size_system.cpu.icache.mem_side::system.l2cache.cpu_side       172160                       # Cumulative packet size per connected master and slave (bytes)
system.l2bus.pkt_size_system.cpu.dcache.mem_side::system.l2cache.cpu_side      1318528                       # Cumulative packet size per connected master and slave (bytes)
system.l2bus.pkt_size::total                  1490688                       # Cumulative packet size per connected master and slave (bytes)
system.l2bus.snoops                             11331                       # Total snoops (count)
system.l2bus.snoopTraffic                       88448                       # Total snoop traffic (bytes)
system.l2bus.snoop_fanout::samples              31658                       # Request fanout histogram
system.l2bus.snoop_fanout::mean              0.014815                       # Request fanout histogram
system.l2bus.snoop_fanout::stdev             0.121073                       # Request fanout histogram
system.l2bus.snoop_fanout::underflows               0      0.00%      0.00% # Request fanout histogram
system.l2bus.snoop_fanout::0                    31190     98.52%     98.52% # Request fanout histogram
system.l2bus.snoop_fanout::1                      467      1.48%    100.00% # Request fanout histogram
system.l2bus.snoop_fanout::2                        1      0.00%    100.00% # Request fanout histogram
system.l2bus.snoop_fanout::overflows                0      0.00%    100.00% # Request fanout histogram
system.l2bus.snoop_fanout::min_value                0                       # Request fanout histogram
system.l2bus.snoop_fanout::max_value                2                       # Request fanout histogram
system.l2bus.snoop_fanout::total                31658                       # Request fanout histogram
system.l2bus.respLayer1.occupancy            21165597                       # Layer occupancy (ticks)
system.l2bus.respLayer1.utilization               1.8                       # Layer utilization (%)
system.l2bus.reqLayer0.occupancy             19641622                       # Layer occupancy (ticks)
system.l2bus.reqLayer0.utilization                1.7                       # Layer utilization (%)
system.l2bus.respLayer0.occupancy             3229599                       # Layer occupancy (ticks)
system.l2bus.respLayer0.utilization               0.3                       # Layer utilization (%)
system.clk_domain.clock                           400                       # Clock period in ticks
system.clk_domain.voltage_domain.voltage            1                       # Voltage in Volts
system.cpu.pwrStateResidencyTicks::ON      1147700400                       # Cumulative time (in ticks) in various power states
system.cpu.icache.pwrStateResidencyTicks::UNDEFINED   1147700400                       # Cumulative time (in ticks) in various power states
system.cpu.icache.demand_hits::.cpu.inst       254024                       # number of demand (read+write) hits
system.cpu.icache.demand_hits::total           254024                       # number of demand (read+write) hits
system.cpu.icache.overall_hits::.cpu.inst       254024                       # number of overall hits
system.cpu.icache.overall_hits::total          254024                       # number of overall hits
system.cpu.icache.demand_misses::.cpu.inst         3378                       # number of demand (read+write) misses
system.cpu.icache.demand_misses::total           3378                       # number of demand (read+write) misses
system.cpu.icache.overall_misses::.cpu.inst         3378                       # number of overall misses
system.cpu.icache.overall_misses::total          3378                       # number of overall misses
system.cpu.icache.demand_miss_latency::.cpu.inst    168521199                       # number of demand (read+write) miss cycles
system.cpu.icache.demand_miss_latency::total    168521199                       # number of demand (read+write) miss cycles
system.cpu.icache.overall_miss_latency::.cpu.inst    168521199                       # number of overall miss cycles
system.cpu.icache.overall_miss_latency::total    168521199                       # number of overall miss cycles
system.cpu.icache.demand_accesses::.cpu.inst       257402                       # number of demand (read+write) accesses
system.cpu.icache.demand_accesses::total       257402                       # number of demand (read+write) accesses
system.cpu.icache.overall_accesses::.cpu.inst       257402                       # number of overall (read+write) accesses
system.cpu.icache.overall_accesses::total       257402                       # number of overall (read+write) accesses
system.cpu.icache.demand_miss_rate::.cpu.inst     0.013123                       # miss rate for demand accesses
system.cpu.icache.demand_miss_rate::total     0.013123                       # miss rate for demand accesses
system.cpu.icache.overall_miss_rate::.cpu.inst     0.013123                       # miss rate for overall accesses
system.cpu.icache.overall_miss_rate::total     0.013123                       # miss rate for overall accesses
system.cpu.icache.demand_avg_miss_latency::.cpu.inst 49887.862345                       # average overall miss latency
system.cpu.icache.demand_avg_miss_latency::total 49887.862345                       # average overall miss latency
system.cpu.icache.overall_avg_miss_latency::.cpu.inst 49887.862345                       # average overall miss latency
system.cpu.icache.overall_avg_miss_latency::total 49887.862345                       # average overall miss latency
system.cpu.icache.blocked_cycles::no_mshrs           54                       # number of cycles access was blocked
system.cpu.icache.blocked_cycles::no_targets            0                       # number of cycles access was blocked
system.cpu.icache.blocked::no_mshrs                 3                       # number of cycles access was blocked
system.cpu.icache.blocked::no_targets               0                       # number of cycles access was blocked
system.cpu.icache.avg_blocked_cycles::no_mshrs           18                       # average number of cycles each access was blocked
system.cpu.icache.avg_blocked_cycles::no_targets          nan                       # average number of cycles each access was blocked
system.cpu.icache.demand_mshr_hits::.cpu.inst          687                       # number of demand (read+write) MSHR hits
system.cpu.icache.demand_mshr_hits::total          687                       # number of demand (read+write) MSHR hits
system.cpu.icache.overall_mshr_hits::.cpu.inst          687                       # number of overall MSHR hits
system.cpu.icache.overall_mshr_hits::total          687                       # number of overall MSHR hits
system.cpu.icache.demand_mshr_misses::.cpu.inst         2691                       # number of demand (read+write) MSHR misses
system.cpu.icache.demand_mshr_misses::total         2691                       # number of demand (read+write) MSHR misses
system.cpu.icache.overall_mshr_misses::.cpu.inst         2691                       # number of overall MSHR misses
system.cpu.icache.overall_mshr_misses::total         2691                       # number of overall MSHR misses
system.cpu.icache.demand_mshr_miss_latency::.cpu.inst    135043199                       # number of demand (read+write) MSHR miss cycles
system.cpu.icache.demand_mshr_miss_latency::total    135043199                       # number of demand (read+write) MSHR miss cycles
system.cpu.icache.overall_mshr_miss_latency::.cpu.inst    135043199                       # number of overall MSHR miss cycles
system.cpu.icache.overall_mshr_miss_latency::total    135043199                       # number of overall MSHR miss cycles
system.cpu.icache.demand_mshr_miss_rate::.cpu.inst     0.010454                       # mshr miss rate for demand accesses
system.cpu.icache.demand_mshr_miss_rate::total     0.010454                       # mshr miss rate for demand accesses
system.cpu.icache.overall_mshr_miss_rate::.cpu.inst     0.010454                       # mshr miss rate for overall accesses
system.cpu.icache.overall_mshr_miss_rate::total     0.010454                       # mshr miss rate for overall accesses
system.cpu.icache.demand_avg_mshr_miss_latency::.cpu.inst 50183.277220                       # average overall mshr miss latency
system.cpu.icache.demand_avg_mshr_miss_latency::total 50183.277220                       # average overall mshr miss latency
system.cpu.icache.overall_avg_mshr_miss_latency::.cpu.inst 50183.277220                       # average overall mshr miss latency
system.cpu.icache.overall_avg_mshr_miss_latency::total 50183.277220                       # average overall mshr miss latency
system.cpu.icache.replacements                   2435                       # number of replacements
system.cpu.icache.ReadReq_hits::.cpu.inst       254024                       # number of ReadReq hits
system.cpu.icache.ReadReq_hits::total          254024                       # number of ReadReq hits
system.cpu.icache.ReadReq_misses::.cpu.inst         3378                       # number of ReadReq misses
system.cpu.icache.ReadReq_misses::total          3378                       # number of ReadReq misses
system.cpu.icache.ReadReq_miss_latency::.cpu.inst    168521199                       # number of ReadReq miss cycles
system.cpu.icache.ReadReq_miss_latency::total    168521199                       # number of ReadReq miss cycles
system.cpu.icache.ReadReq_accesses::.cpu.inst       257402                       # number of ReadReq accesses(hits+misses)
system.cpu.icache.ReadReq_accesses::total       257402                       # number of ReadReq accesses(hits+misses)
system.cpu.icache.ReadReq_miss_rate::.cpu.inst     0.013123                       # miss rate for ReadReq accesses
system.cpu.icache.ReadReq_miss_rate::total     0.013123                       # miss rate for ReadReq accesses
system.cpu.icache.ReadReq_avg_miss_latency::.cpu.inst 49887.862345                       # average ReadReq miss latency
system.cpu.icache.ReadReq_avg_miss_latency::total 49887.862345                       # average ReadReq miss latency
system.cpu.icache.ReadReq_mshr_hits::.cpu.inst          687                       # number of ReadReq MSHR hits
system.cpu.icache.ReadReq_mshr_hits::total          687                       # number of ReadReq MSHR hits
system.cpu.icache.ReadReq_mshr_misses::.cpu.inst         2691                       # number of ReadReq MSHR misses
system.cpu.icache.ReadReq_mshr_misses::total         2691                       # number of ReadReq MSHR misses
system.cpu.icache.ReadReq_mshr_miss_latency::.cpu.inst    135043199                       # number of ReadReq MSHR miss cycles
system.cpu.icache.ReadReq_mshr_miss_latency::total    135043199                       # number of ReadReq MSHR miss cycles
system.cpu.icache.ReadReq_mshr_miss_rate::.cpu.inst     0.010454                       # mshr miss rate for ReadReq accesses
system.cpu.icache.ReadReq_mshr_miss_rate::total     0.010454                       # mshr miss rate for ReadReq accesses
system.cpu.icache.ReadReq_avg_mshr_miss_latency::.cpu.inst 50183.277220                       # average ReadReq mshr miss latency
system.cpu.icache.ReadReq_avg_mshr_miss_latency::total 50183.277220                       # average ReadReq mshr miss latency
system.cpu.icache.prefetcher.pwrStateResidencyTicks::UNDEFINED   1147700400                       # Cumulative time (in ticks) in various power states
system.cpu.icache.tags.pwrStateResidencyTicks::UNDEFINED   1147700400                       # Cumulative time (in ticks) in various power states
system.cpu.icache.tags.tagsinuse           253.555806                       # Cycle average of tags in use
system.cpu.icache.tags.total_refs              214542                       # Total number of references to valid blocks.
system.cpu.icache.tags.sampled_refs              2435                       # Sample count of references to valid blocks.
system.cpu.icache.tags.avg_refs             88.107598                       # Average number of references to valid blocks.
system.cpu.icache.tags.warmup_cycle             66400                       # Cycle when the warmup percentage was hit.
system.cpu.icache.tags.occ_blocks::.cpu.inst   253.555806                       # Average occupied blocks per requestor
system.cpu.icache.tags.occ_percent::.cpu.inst     0.990452                       # Average percentage of cache occupancy
system.cpu.icache.tags.occ_percent::total     0.990452                       # Average percentage of cache occupancy
system.cpu.icache.tags.occ_task_id_blocks::1024          256                       # Occupied blocks per task id
system.cpu.icache.tags.age_task_id_blocks_1024::0           84                       # Occupied blocks per task id
system.cpu.icache.tags.age_task_id_blocks_1024::1           89                       # Occupied blocks per task id
system.cpu.icache.tags.age_task_id_blocks_1024::2           77                       # Occupied blocks per task id
system.cpu.icache.tags.age_task_id_blocks_1024::3            6                       # Occupied blocks per task id
system.cpu.icache.tags.occ_task_id_percent::1024            1                       # Percentage of cache occupancy per task id
system.cpu.icache.tags.tag_accesses            517495                       # Number of tag accesses
system.cpu.icache.tags.data_accesses           517495                       # Number of data accesses
system.cpu.dtb.walker.pwrStateResidencyTicks::UNDEFINED   1147700400                       # Cumulative time (in ticks) in various power states
system.cpu.interrupts.clk_domain.clock           6400                       # Clock period in ticks
system.cpu.itb.walker.pwrStateResidencyTicks::UNDEFINED   1147700400                       # Cumulative time (in ticks) in various power states
system.cpu.dcache.pwrStateResidencyTicks::UNDEFINED   1147700400                       # Cumulative time (in ticks) in various power states
system.cpu.dcache.demand_hits::.cpu.data       703328                       # number of demand (read+write) hits
system.cpu.dcache.demand_hits::total           703328                       # number of demand (read+write) hits
system.cpu.dcache.overall_hits::.cpu.data       703328                       # number of overall hits
system.cpu.dcache.overall_hits::total          703328                       # number of overall hits
system.cpu.dcache.demand_misses::.cpu.data        35899                       # number of demand (read+write) misses
system.cpu.dcache.demand_misses::total          35899                       # number of demand (read+write) misses
system.cpu.dcache.overall_misses::.cpu.data        35899                       # number of overall misses
system.cpu.dcache.overall_misses::total         35899                       # number of overall misses
system.cpu.dcache.demand_miss_latency::.cpu.data   1738687199                       # number of demand (read+write) miss cycles
system.cpu.dcache.demand_miss_latency::total   1738687199                       # number of demand (read+write) miss cycles
system.cpu.dcache.overall_miss_latency::.cpu.data   1738687199                       # number of overall miss cycles
system.cpu.dcache.overall_miss_latency::total   1738687199                       # number of overall miss cycles
system.cpu.dcache.demand_accesses::.cpu.data       739227                       # number of demand (read+write) accesses
system.cpu.dcache.demand_accesses::total       739227                       # number of demand (read+write) accesses
system.cpu.dcache.overall_accesses::.cpu.data       739227                       # number of overall (read+write) accesses
system.cpu.dcache.overall_accesses::total       739227                       # number of overall (read+write) accesses
system.cpu.dcache.demand_miss_rate::.cpu.data     0.048563                       # miss rate for demand accesses
system.cpu.dcache.demand_miss_rate::total     0.048563                       # miss rate for demand accesses
system.cpu.dcache.overall_miss_rate::.cpu.data     0.048563                       # miss rate for overall accesses
system.cpu.dcache.overall_miss_rate::total     0.048563                       # miss rate for overall accesses
system.cpu.dcache.demand_avg_miss_latency::.cpu.data 48432.747402                       # average overall miss latency
system.cpu.dcache.demand_avg_miss_latency::total 48432.747402                       # average overall miss latency
system.cpu.dcache.overall_avg_miss_latency::.cpu.data 48432.747402                       # average overall miss latency
system.cpu.dcache.overall_avg_miss_latency::total 48432.747402                       # average overall miss latency
system.cpu.dcache.blocked_cycles::no_mshrs        29373                       # number of cycles access was blocked
system.cpu.dcache.blocked_cycles::no_targets           98                       # number of cycles access was blocked
system.cpu.dcache.blocked::no_mshrs               780                       # number of cycles access was blocked
system.cpu.dcache.blocked::no_targets               1                       # number of cycles access was blocked
system.cpu.dcache.avg_blocked_cycles::no_mshrs    37.657692                       # average number of cycles each access was blocked
system.cpu.dcache.avg_blocked_cycles::no_targets           98                       # average number of cycles each access was blocked
system.cpu.dcache.unused_prefetches              1857                       # number of HardPF blocks evicted w/o reference
system.cpu.dcache.writebacks::.writebacks         2965                       # number of writebacks
system.cpu.dcache.writebacks::total              2965                       # number of writebacks
system.cpu.dcache.demand_mshr_hits::.cpu.data        22905                       # number of demand (read+write) MSHR hits
system.cpu.dcache.demand_mshr_hits::total        22905                       # number of demand (read+write) MSHR hits
system.cpu.dcache.overall_mshr_hits::.cpu.data        22905                       # number of overall MSHR hits
system.cpu.dcache.overall_mshr_hits::total        22905                       # number of overall MSHR hits
system.cpu.dcache.demand_mshr_misses::.cpu.data        12994                       # number of demand (read+write) MSHR misses
system.cpu.dcache.demand_mshr_misses::total        12994                       # number of demand (read+write) MSHR misses
system.cpu.dcache.overall_mshr_misses::.cpu.data        12994                       # number of overall MSHR misses
system.cpu.dcache.overall_mshr_misses::.cpu.dcache.prefetcher         4643                       # number of overall MSHR misses
system.cpu.dcache.overall_mshr_misses::total        17637                       # number of overall MSHR misses
system.cpu.dcache.demand_mshr_miss_latency::.cpu.data    602176399                       # number of demand (read+write) MSHR miss cycles
system.cpu.dcache.demand_mshr_miss_latency::total    602176399                       # number of demand (read+write) MSHR miss cycles
system.cpu.dcache.overall_mshr_miss_latency::.cpu.data    602176399                       # number of overall MSHR miss cycles
system.cpu.dcache.overall_mshr_miss_latency::.cpu.dcache.prefetcher    250902661                       # number of overall MSHR miss cycles
system.cpu.dcache.overall_mshr_miss_latency::total    853079060                       # number of overall MSHR miss cycles
system.cpu.dcache.demand_mshr_miss_rate::.cpu.data     0.017578                       # mshr miss rate for demand accesses
system.cpu.dcache.demand_mshr_miss_rate::total     0.017578                       # mshr miss rate for demand accesses
system.cpu.dcache.overall_mshr_miss_rate::.cpu.data     0.017578                       # mshr miss rate for overall accesses
system.cpu.dcache.overall_mshr_miss_rate::.cpu.dcache.prefetcher          inf                       # mshr miss rate for overall accesses
system.cpu.dcache.overall_mshr_miss_rate::total     0.023859                       # mshr miss rate for overall accesses
system.cpu.dcache.demand_avg_mshr_miss_latency::.cpu.data 46342.650377                       # average overall mshr miss latency
system.cpu.dcache.demand_avg_mshr_miss_latency::total 46342.650377                       # average overall mshr miss latency
system.cpu.dcache.overall_avg_mshr_miss_latency::.cpu.data 46342.650377                       # average overall mshr miss latency
system.cpu.dcache.overall_avg_mshr_miss_latency::.cpu.dcache.prefetcher 54038.910403                       # average overall mshr miss latency
system.cpu.dcache.overall_avg_mshr_miss_latency::total 48368.716902                       # average overall mshr miss latency
system.cpu.dcache.replacements                  16613                       # number of replacements
system.cpu.dcache.ReadReq_hits::.cpu.data       520890                       # number of ReadReq hits
system.cpu.dcache.ReadReq_hits::total          520890                       # number of ReadReq hits
system.cpu.dcache.ReadReq_misses::.cpu.data        33467                       # number of ReadReq misses
system.cpu.dcache.ReadReq_misses::total         33467                       # number of ReadReq misses
system.cpu.dcache.ReadReq_miss_latency::.cpu.data   1612503200                       # number of ReadReq miss cycles
system.cpu.dcache.ReadReq_miss_latency::total   1612503200                       # number of ReadReq miss cycles
system.cpu.dcache.ReadReq_accesses::.cpu.data       554357                       # number of ReadReq accesses(hits+misses)
system.cpu.dcache.ReadReq_accesses::total       554357                       # number of ReadReq accesses(hits+misses)
system.cpu.dcache.ReadReq_miss_rate::.cpu.data     0.060371                       # miss rate for ReadReq accesses
system.cpu.dcache.ReadReq_miss_rate::total     0.060371                       # miss rate for ReadReq accesses
system.cpu.dcache.ReadReq_avg_miss_latency::.cpu.data 48181.886635                       # average ReadReq miss latency
system.cpu.dcache.ReadReq_avg_miss_latency::total 48181.886635                       # average ReadReq miss latency
system.cpu.dcache.ReadReq_mshr_hits::.cpu.data        22871                       # number of ReadReq MSHR hits
system.cpu.dcache.ReadReq_mshr_hits::total        22871                       # number of ReadReq MSHR hits
system.cpu.dcache.ReadReq_mshr_misses::.cpu.data        10596                       # number of ReadReq MSHR misses
system.cpu.dcache.ReadReq_mshr_misses::total        10596                       # number of ReadReq MSHR misses
system.cpu.dcache.ReadReq_mshr_miss_latency::.cpu.data    478994400                       # number of ReadReq MSHR miss cycles
system.cpu.dcache.ReadReq_mshr_miss_latency::total    478994400                       # number of ReadReq MSHR miss cycles
system.cpu.dcache.ReadReq_mshr_miss_rate::.cpu.data     0.019114                       # mshr miss rate for ReadReq accesses
system.cpu.dcache.ReadReq_mshr_miss_rate::total     0.019114                       # mshr miss rate for ReadReq accesses
system.cpu.dcache.ReadReq_avg_mshr_miss_latency::.cpu.data 45205.209513                       # average ReadReq mshr miss latency
system.cpu.dcache.ReadReq_avg_mshr_miss_latency::total 45205.209513                       # average ReadReq mshr miss latency
system.cpu.dcache.WriteReq_hits::.cpu.data       182438                       # number of WriteReq hits
system.cpu.dcache.WriteReq_hits::total         182438                       # number of WriteReq hits
system.cpu.dcache.WriteReq_misses::.cpu.data         2432                       # number of WriteReq misses
system.cpu.dcache.WriteReq_misses::total         2432                       # number of WriteReq misses
system.cpu.dcache.WriteReq_miss_latency::.cpu.data    126183999                       # number of WriteReq miss cycles
system.cpu.dcache.WriteReq_miss_latency::total    126183999                       # number of WriteReq miss cycles
system.cpu.dcache.WriteReq_accesses::.cpu.data       184870                       # number of WriteReq accesses(hits+misses)
system.cpu.dcache.WriteReq_accesses::total       184870                       # number of WriteReq accesses(hits+misses)
system.cpu.dcache.WriteReq_miss_rate::.cpu.data     0.013155                       # miss rate for WriteReq accesses
system.cpu.dcache.WriteReq_miss_rate::total     0.013155                       # miss rate for WriteReq accesses
system.cpu.dcache.WriteReq_avg_miss_latency::.cpu.data 51884.868010                       # average WriteReq miss latency
system.cpu.dcache.WriteReq_avg_miss_latency::total 51884.868010                       # average WriteReq miss latency
system.cpu.dcache.WriteReq_mshr_hits::.cpu.data           34                       # number of WriteReq MSHR hits
system.cpu.dcache.WriteReq_mshr_hits::total           34                       # number of WriteReq MSHR hits
system.cpu.dcache.WriteReq_mshr_misses::.cpu.data         2398                       # number of WriteReq MSHR misses
system.cpu.dcache.WriteReq_mshr_misses::total         2398                       # number of WriteReq MSHR misses
[...]
system.l2cache.demand_mshr_miss_rate::.cpu.data     0.020182                       # mshr miss rate for demand accesses
system.l2cache.demand_mshr_miss_rate::.cpu.dcache.prefetcher     0.218487                       # mshr miss rate for demand accesses
system.l2cache.demand_mshr_miss_rate::total     0.001433                       # mshr miss rate for demand accesses
system.l2cache.overall_mshr_miss_rate::.cpu.inst     0.000938                       # mshr miss rate for overall accesses
system.l2cache.overall_mshr_miss_rate::.cpu.data     0.020182                       # mshr miss rate for overall accesses
system.l2cache.overall_mshr_miss_rate::.cpu.dcache.prefetcher     0.218487                       # mshr miss rate for overall accesses
system.l2cache.overall_mshr_miss_rate::.l2cache.prefetcher          inf                       # mshr miss rate for overall accesses
system.l2cache.overall_mshr_miss_rate::total     0.001440                       # mshr miss rate for overall accesses
system.l2cache.demand_avg_mshr_miss_latency::.cpu.inst 58842.835596                       # average overall mshr miss latency
system.l2cache.demand_avg_mshr_miss_latency::.cpu.data 60726.279863                       # average overall mshr miss latency
system.l2cache.demand_avg_mshr_miss_latency::.cpu.dcache.prefetcher 62465.641026                       # average overall mshr miss latency
system.l2cache.demand_avg_mshr_miss_latency::total 59649.825919                       # average overall mshr miss latency
system.l2cache.overall_avg_mshr_miss_latency::.cpu.inst 58842.835596                       # average overall mshr miss latency
system.l2cache.overall_avg_mshr_miss_latency::.cpu.data 60726.279863                       # average overall mshr miss latency
system.l2cache.overall_avg_mshr_miss_latency::.cpu.dcache.prefetcher 62465.641026                       # average overall mshr miss latency
system.l2cache.overall_avg_mshr_miss_latency::.l2cache.prefetcher        52559                       # average overall mshr miss latency
system.l2cache.overall_avg_mshr_miss_latency::total 59615.702599                       # average overall mshr miss latency
system.l2cache.replacements                      1062                       # number of replacements
system.l2cache.WritebackDirty_hits::.writebacks        14449                       # number of WritebackDirty hits
system.l2cache.WritebackDirty_hits::total        14449                       # number of WritebackDirty hits
system.l2cache.WritebackDirty_accesses::.writebacks        14449                       # number of WritebackDirty accesses(hits+misses)
system.l2cache.WritebackDirty_accesses::total        14449                       # number of WritebackDirty accesses(hits+misses)
system.l2cache.CleanEvict_mshr_misses::.writebacks           18                       # number of CleanEvict MSHR misses
system.l2cache.CleanEvict_mshr_misses::total           18                       # number of CleanEvict MSHR misses
system.l2cache.CleanEvict_mshr_miss_rate::.writebacks          inf                       # mshr miss rate for CleanEvict accesses
system.l2cache.CleanEvict_mshr_miss_rate::total          inf                       # mshr miss rate for CleanEvict accesses
system.l2cache.HardPFReq_mshr_misses::.l2cache.prefetcher            5                       # number of HardPFReq MSHR misses
system.l2cache.HardPFReq_mshr_misses::total            5                       # number of HardPFReq MSHR misses
system.l2cache.HardPFReq_mshr_miss_latency::.l2cache.prefetcher       262795                       # number of HardPFReq MSHR miss cycles
system.l2cache.HardPFReq_mshr_miss_latency::total       262795                       # number of HardPFReq MSHR miss cycles
system.l2cache.HardPFReq_mshr_miss_rate::.l2cache.prefetcher          inf                       # mshr miss rate for HardPFReq accesses
system.l2cache.HardPFReq_mshr_miss_rate::total          inf                       # mshr miss rate for HardPFReq accesses
system.l2cache.HardPFReq_avg_mshr_miss_latency::.l2cache.prefetcher        52559                       # average HardPFReq mshr miss latency
system.l2cache.HardPFReq_avg_mshr_miss_latency::total        52559                       # average HardPFReq mshr miss latency
system.l2cache.ReadExReq_hits::.cpu.data        11527                       # number of ReadExReq hits
system.l2cache.ReadExReq_hits::total            11527                       # number of ReadExReq hits
system.l2cache.ReadExReq_misses::.cpu.data           35                       # number of ReadExReq misses
system.l2cache.ReadExReq_misses::total             35                       # number of ReadExReq misses
system.l2cache.ReadExReq_miss_latency::.cpu.data      2336000                       # number of ReadExReq miss cycles
system.l2cache.ReadExReq_miss_latency::total      2336000                       # number of ReadExReq miss cycles
system.l2cache.ReadExReq_accesses::.cpu.data        11562                       # number of ReadExReq accesses(hits+misses)
system.l2cache.ReadExReq_accesses::total        11562                       # number of ReadExReq accesses(hits+misses)
system.l2cache.ReadExReq_miss_rate::.cpu.data     0.003027                       # miss rate for ReadExReq accesses
system.l2cache.ReadExReq_miss_rate::total     0.003027                       # miss rate for ReadExReq accesses
system.l2cache.ReadExReq_avg_miss_latency::.cpu.data 66742.857143                       # average ReadExReq miss latency
system.l2cache.ReadExReq_avg_miss_latency::total 66742.857143                       # average ReadExReq miss latency
system.l2cache.ReadExReq_mshr_misses::.cpu.data           35                       # number of ReadExReq MSHR misses
system.l2cache.ReadExReq_mshr_misses::total           35                       # number of ReadExReq MSHR misses
system.l2cache.ReadExReq_mshr_miss_latency::.cpu.data      2056000                       # number of ReadExReq MSHR miss cycles
system.l2cache.ReadExReq_mshr_miss_latency::total      2056000                       # number of ReadExReq MSHR miss cycles
system.l2cache.ReadExReq_mshr_miss_rate::.cpu.data     0.003027                       # mshr miss rate for ReadExReq accesses
system.l2cache.ReadExReq_mshr_miss_rate::total     0.003027                       # mshr miss rate for ReadExReq accesses
system.l2cache.ReadExReq_avg_mshr_miss_latency::.cpu.data 58742.857143                       # average ReadExReq mshr miss latency
system.l2cache.ReadExReq_avg_mshr_miss_latency::total 58742.857143                       # average ReadExReq mshr miss latency
system.l2cache.ReadSharedReq_hits::.cpu.inst       706227                       # number of ReadSharedReq hits
system.l2cache.ReadSharedReq_hits::.cpu.data         2697                       # number of ReadSharedReq hits
system.l2cache.ReadSharedReq_hits::.cpu.dcache.prefetcher          279                       # number of ReadSharedReq hits
system.l2cache.ReadSharedReq_hits::total       709203                       # number of ReadSharedReq hits
system.l2cache.ReadSharedReq_misses::.cpu.inst          663                       # number of ReadSharedReq misses
system.l2cache.ReadSharedReq_misses::.cpu.data          259                       # number of ReadSharedReq misses
system.l2cache.ReadSharedReq_misses::.cpu.dcache.prefetcher           78                       # number of ReadSharedReq misses
system.l2cache.ReadSharedReq_misses::total         1000                       # number of ReadSharedReq misses
system.l2cache.ReadSharedReq_miss_latency::.cpu.inst     44308800                       # number of ReadSharedReq miss cycles
system.l2cache.ReadSharedReq_miss_latency::.cpu.data     17857200                       # number of ReadSharedReq miss cycles
system.l2cache.ReadSharedReq_miss_latency::.cpu.dcache.prefetcher      5496320                       # number of ReadSharedReq miss cycles
system.l2cache.ReadSharedReq_miss_latency::total     67662320                       # number of ReadSharedReq miss cycles
system.l2cache.ReadSharedReq_accesses::.cpu.inst       706890                       # number of ReadSharedReq accesses(hits+misses)
system.l2cache.ReadSharedReq_accesses::.cpu.data         2956                       # number of ReadSharedReq accesses(hits+misses)
system.l2cache.ReadSharedReq_accesses::.cpu.dcache.prefetcher          357                       # number of ReadSharedReq accesses(hits+misses)
system.l2cache.ReadSharedReq_accesses::total       710203                       # number of ReadSharedReq accesses(hits+misses)
system.l2cache.ReadSharedReq_miss_rate::.cpu.inst     0.000938                       # miss rate for ReadSharedReq accesses
system.l2cache.ReadSharedReq_miss_rate::.cpu.data     0.087618                       # miss rate for ReadSharedReq accesses
system.l2cache.ReadSharedReq_miss_rate::.cpu.dcache.prefetcher     0.218487                       # miss rate for ReadSharedReq accesses
system.l2cache.ReadSharedReq_miss_rate::total     0.001408                       # miss rate for ReadSharedReq accesses
system.l2cache.ReadSharedReq_avg_miss_latency::.cpu.inst 66830.769231                       # average ReadSharedReq miss latency
system.l2cache.ReadSharedReq_avg_miss_latency::.cpu.data 68946.718147                       # average ReadSharedReq miss latency
system.l2cache.ReadSharedReq_avg_miss_latency::.cpu.dcache.prefetcher 70465.641026                       # average ReadSharedReq miss latency
system.l2cache.ReadSharedReq_avg_miss_latency::total 67662.320000                       # average ReadSharedReq miss latency
system.l2cache.ReadSharedReq_mshr_hits::.cpu.data            1                       # number of ReadSharedReq MSHR hits
system.l2cache.ReadSharedReq_mshr_hits::total            1                       # number of ReadSharedReq MSHR hits
system.l2cache.ReadSharedReq_mshr_misses::.cpu.inst          663                       # number of ReadSharedReq MSHR misses
system.l2cache.ReadSharedReq_mshr_misses::.cpu.data          258                       # number of ReadSharedReq MSHR misses
system.l2cache.ReadSharedReq_mshr_misses::.cpu.dcache.prefetcher           78                       # number of ReadSharedReq MSHR misses
system.l2cache.ReadSharedReq_mshr_misses::total          999                       # number of ReadSharedReq MSHR misses
system.l2cache.ReadSharedReq_mshr_miss_latency::.cpu.inst     39012800                       # number of ReadSharedReq MSHR miss cycles
system.l2cache.ReadSharedReq_mshr_miss_latency::.cpu.data     15736800                       # number of ReadSharedReq MSHR miss cycles
system.l2cache.ReadSharedReq_mshr_miss_latency::.cpu.dcache.prefetcher      4872320                       # number of ReadSharedReq MSHR miss cycles
system.l2cache.ReadSharedReq_mshr_miss_latency::total     59621920                       # number of ReadSharedReq MSHR miss cycles
system.l2cache.ReadSharedReq_mshr_miss_rate::.cpu.inst     0.000938                       # mshr miss rate for ReadSharedReq accesses
system.l2cache.ReadSharedReq_mshr_miss_rate::.cpu.data     0.087280                       # mshr miss rate for ReadSharedReq accesses
system.l2cache.ReadSharedReq_mshr_miss_rate::.cpu.dcache.prefetcher     0.218487                       # mshr miss rate for ReadSharedReq accesses
system.l2cache.ReadSharedReq_mshr_miss_rate::total     0.001407                       # mshr miss rate for ReadSharedReq accesses
system.l2cache.ReadSharedReq_avg_mshr_miss_latency::.cpu.inst 58842.835596                       # average ReadSharedReq mshr miss latency
system.l2cache.ReadSharedReq_avg_mshr_miss_latency::.cpu.data 60995.348837                       # average ReadSharedReq mshr miss latency
system.l2cache.ReadSharedReq_avg_mshr_miss_latency::.cpu.dcache.prefetcher 62465.641026                       # average ReadSharedReq mshr miss latency
system.l2cache.ReadSharedReq_avg_mshr_miss_latency::total 59681.601602                       # average ReadSharedReq mshr miss latency
system.l2cache.prefetcher.pwrStateResidencyTicks::UNDEFINED  10301348400                       # Cumulative time (in ticks) in various power states
system.l2cache.tags.pwrStateResidencyTicks::UNDEFINED  10301348400                       # Cumulative time (in ticks) in various power states
system.l2cache.tags.tagsinuse                    4096                       # Cycle average of tags in use
system.l2cache.tags.total_refs                1455453                       # Total number of references to valid blocks.
system.l2cache.tags.sampled_refs                 5158                       # Sample count of references to valid blocks.
system.l2cache.tags.avg_refs               282.173905                       # Average number of references to valid blocks.
system.l2cache.tags.warmup_cycle                    0                       # Cycle when the warmup percentage was hit.
system.l2cache.tags.occ_blocks::.writebacks    57.443648                       # Average occupied blocks per requestor
system.l2cache.tags.occ_blocks::.cpu.inst  1267.118303                       # Average occupied blocks per requestor
system.l2cache.tags.occ_blocks::.cpu.data  1756.306056                       # Average occupied blocks per requestor
system.l2cache.tags.occ_blocks::.cpu.dcache.prefetcher   690.214442                       # Average occupied blocks per requestor
system.l2cache.tags.occ_blocks::.l2cache.prefetcher   324.917551                       # Average occupied blocks per requestor
system.l2cache.tags.occ_percent::.writebacks     0.014024                       # Average percentage of cache occupancy
system.l2cache.tags.occ_percent::.cpu.inst     0.309355                       # Average percentage of cache occupancy
system.l2cache.tags.occ_percent::.cpu.data     0.428786                       # Average percentage of cache occupancy
system.l2cache.tags.occ_percent::.cpu.dcache.prefetcher     0.168509                       # Average percentage of cache occupancy
system.l2cache.tags.occ_percent::.l2cache.prefetcher     0.079326                       # Average percentage of cache occupancy
system.l2cache.tags.occ_percent::total              1                       # Average percentage of cache occupancy
system.l2cache.tags.occ_task_id_blocks::1022          949                       # Occupied blocks per task id
system.l2cache.tags.occ_task_id_blocks::1024         3147                       # Occupied blocks per task id
system.l2cache.tags.age_task_id_blocks_1022::0           13                       # Occupied blocks per task id
system.l2cache.tags.age_task_id_blocks_1022::1            1                       # Occupied blocks per task id
system.l2cache.tags.age_task_id_blocks_1022::3            6                       # Occupied blocks per task id
system.l2cache.tags.age_task_id_blocks_1022::4          929                       # Occupied blocks per task id
system.l2cache.tags.age_task_id_blocks_1024::0          185                       # Occupied blocks per task id
system.l2cache.tags.age_task_id_blocks_1024::1           38                       # Occupied blocks per task id
system.l2cache.tags.age_task_id_blocks_1024::3           69                       # Occupied blocks per task id
system.l2cache.tags.age_task_id_blocks_1024::4         2855                       # Occupied blocks per task id
system.l2cache.tags.occ_task_id_percent::1022     0.231689                       # Percentage of cache occupancy per task id
system.l2cache.tags.occ_task_id_percent::1024     0.768311                       # Percentage of cache occupancy per task id
system.l2cache.tags.tag_accesses             11549286                       # Number of tag accesses
system.l2cache.tags.data_accesses            11549286                       # Number of data accesses
system.mem_ctrl.pwrStateResidencyTicks::UNDEFINED  10301348400                       # Cumulative time (in ticks) in various power states
system.mem_ctrl.bytes_read::.cpu.inst           42368                       # Number of bytes read from this memory
system.mem_ctrl.bytes_read::.cpu.data           18752                       # Number of bytes read from this memory
system.mem_ctrl.bytes_read::.cpu.dcache.prefetcher         4992                       # Number of bytes read from this memory
system.mem_ctrl.bytes_read::.l2cache.prefetcher          320                       # Number of bytes read from this memory
system.mem_ctrl.bytes_read::total               66432                       # Number of bytes read from this memory
system.mem_ctrl.bytes_inst_read::.cpu.inst        42368                       # Number of instructions bytes read from this memory
system.mem_ctrl.bytes_inst_read::total          42368                       # Number of instructions bytes read from this memory
system.mem_ctrl.bytes_written::.writebacks         4864                       # Number of bytes written to this memory
system.mem_ctrl.bytes_written::total             4864                       # Number of bytes written to this memory
system.mem_ctrl.num_reads::.cpu.inst              662                       # Number of read requests responded to by this memory
system.mem_ctrl.num_reads::.cpu.data              293                       # Number of read requests responded to by this memory
system.mem_ctrl.num_reads::.cpu.dcache.prefetcher           78                       # Number of read requests responded to by this memory
system.mem_ctrl.num_reads::.l2cache.prefetcher            5                       # Number of read requests responded to by this memory
system.mem_ctrl.num_reads::total                 1038                       # Number of read requests responded to by this memory
system.mem_ctrl.num_writes::.writebacks            76                       # Number of write requests responded to by this memory
system.mem_ctrl.num_writes::total                  76                       # Number of write requests responded to by this memory
system.mem_ctrl.bw_read::.cpu.inst            4112860                       # Total read bandwidth from this memory (bytes/s)
system.mem_ctrl.bw_read::.cpu.data            1820344                       # Total read bandwidth from this memory (bytes/s)
system.mem_ctrl.bw_read::.cpu.dcache.prefetcher       484597                       # Total read bandwidth from this memory (bytes/s)
system.mem_ctrl.bw_read::.l2cache.prefetcher        31064                       # Total read bandwidth from this memory (bytes/s)
system.mem_ctrl.bw_read::total                6448865                       # Total read bandwidth from this memory (bytes/s)
system.mem_ctrl.bw_inst_read::.cpu.inst       4112860                       # Instruction read bandwidth from this memory (bytes/s)
system.mem_ctrl.bw_inst_read::total           4112860                       # Instruction read bandwidth from this memory (bytes/s)
system.mem_ctrl.bw_write::.writebacks          472171                       # Write bandwidth from this memory (bytes/s)
system.mem_ctrl.bw_write::total                472171                       # Write bandwidth from this memory (bytes/s)
system.mem_ctrl.bw_total::.writebacks          472171                       # Total bandwidth to/from this memory (bytes/s)
system.mem_ctrl.bw_total::.cpu.inst           4112860                       # Total bandwidth to/from this memory (bytes/s)
system.mem_ctrl.bw_total::.cpu.data           1820344                       # Total bandwidth to/from this memory (bytes/s)
system.mem_ctrl.bw_total::.cpu.dcache.prefetcher       484597                       # Total bandwidth to/from this memory (bytes/s)
system.mem_ctrl.bw_total::.l2cache.prefetcher        31064                       # Total bandwidth to/from this memory (bytes/s)
system.mem_ctrl.bw_total::total               6921036                       # Total bandwidth to/from this memory (bytes/s)

---------- End Simulation Statistics   ----------
