
---------- Begin Simulation Statistics ----------
final_tick                                 1122238000                       # Number of ticks from beginning of simulation (restored from checkpoints and never reset)
host_inst_rate                                 185990                       # Simulator instruction rate (inst/s)
host_mem_usage                                4402744                       # Number of bytes of host memory used
host_op_rate                                   322817                       # Simulator op (including micro ops) rate (op/s)
host_seconds                                    11.73                       # Real time elapsed on the host
host_tick_rate                               95711968                       # Simulator tick rate (ticks/s)
sim_freq                                 1000000000000                       # Frequency of simulated ticks
sim_insts                                     2180753                       # Number of instructions simulated
sim_ops                                       3785081                       # Number of ops (including micro ops) simulated
sim_seconds                                  0.001122                       # Number of seconds simulated
sim_ticks                                  1122238000                       # Number of ticks simulated
system.cpu.branchPred.BTBCorrect                    0                       # Number of correct BTB predictions (this stat may not work properly.
system.cpu.branchPred.BTBHitPct              0.000000                       # BTB Hit Percentage
system.cpu.branchPred.BTBHits                       0                       # Number of BTB hits
system.cpu.branchPred.BTBLookups               445153                       # Number of BTB lookups
system.cpu.branchPred.RASInCorrect                  4                       # Number of incorrect RAS predictions.
system.cpu.branchPred.condIncorrect             24121                       # Number of conditional branches incorrect
system.cpu.branchPred.condPredicted            472007                       # Number of conditional branches predicted
system.cpu.branchPred.indirectHits             247919                       # Number of indirect target hits.
system.cpu.branchPred.indirectLookups          445153                       # Number of indirect predictor lookups.
system.cpu.branchPred.indirectMisses           197234                       # Number of indirect misses.
system.cpu.branchPred.lookups                  503412                       # Number of BP lookups
system.cpu.branchPred.usedRAS                   13902                       # Number of times the RAS was used to get a target.
system.cpu.branchPredindirectMispredicted        12090                       # Number of mispredicted indirect branches.
system.cpu.cc_regfile_reads                   2440518                       # number of cc regfile reads
system.cpu.cc_regfile_writes                  2054602                       # number of cc regfile writes
system.cpu.commit.amos                              0                       # Number of atomic instructions committed
system.cpu.commit.branchMispredicts             24171                       # The number of times a branch was mispredicted
system.cpu.commit.branches                     359550                       # Number of branches committed
system.cpu.commit.bw_lim_events                621907                       # number cycles where commit BW limit reached
system.cpu.commit.commitNonSpecStalls             732                       # The number of times commit has been forced to stall to communicate backwards
system.cpu.commit.commitSquashedInsts          882059                       # The number of squashed insts skipped by commit
system.cpu.commit.committedInsts              2180753                       # Number of instructions committed
system.cpu.commit.committedOps                3785081                       # Number of ops (including micro ops) committed
system.cpu.commit.committed_per_cycle::samples      2414642                       # Number of insts commited each cycle
system.cpu.commit.committed_per_cycle::mean     1.567554                       # Number of insts commited each cycle
system.cpu.commit.committed_per_cycle::stdev     1.715836                       # Number of insts commited each cycle
system.cpu.commit.committed_per_cycle::underflows            0      0.00%      0.00% # Number of insts commited each cycle
system.cpu.commit.committed_per_cycle::0      1156040     47.88%     47.88% # Number of insts commited each cycle
system.cpu.commit.committed_per_cycle::1       212320      8.79%     56.67% # Number of insts commited each cycle
system.cpu.commit.committed_per_cycle::2       187992      7.79%     64.45% # Number of insts commited each cycle
system.cpu.commit.committed_per_cycle::3       236383      9.79%     74.24% # Number of insts commited each cycle
system.cpu.commit.committed_per_cycle::4       621907     25.76%    100.00% # Number of insts commited each cycle
system.cpu.commit.committed_per_cycle::overflows            0      0.00%    100.00% # Number of insts commited each cycle
system.cpu.commit.committed_per_cycle::min_value            0                       # Number of insts commited each cycle
system.cpu.commit.committed_per_cycle::max_value            4                       # Number of insts commited each cycle
system.cpu.commit.committed_per_cycle::total      2414642                       # Number of insts commited each cycle
system.cpu.commit.fp_insts                      72844                       # Number of committed floating point instructions.
system.cpu.commit.function_calls                12148                       # Number of function calls committed.
system.cpu.commit.int_insts                   3730911                       # Number of committed integer instructions.
system.cpu.commit.loads                        506442                       # Number of loads committed
system.cpu.commit.membars                           1                       # Number of memory barriers committed
system.cpu.commit.op_class_0::No_OpClass        20169      0.53%      0.53% # Class of committed instruction
system.cpu.commit.op_class_0::IntAlu          2993835     79.10%     79.63% # Class of committed instruction
system.cpu.commit.op_class_0::IntMult            5371      0.14%     79.77% # Class of committed instruction
system.cpu.commit.op_class_0::IntDiv            37816      1.00%     80.77% # Class of committed instruction
system.cpu.commit.op_class_0::FloatAdd           2834      0.07%     80.84% # Class of committed instruction
system.cpu.commit.op_class_0::FloatCmp              0      0.00%     80.84% # Class of committed instruction
system.cpu.commit.op_class_0::FloatCvt           1200      0.03%     80.88% # Class of committed instruction
system.cpu.commit.op_class_0::FloatMult             0      0.00%     80.88% # Class of committed instruction
system.cpu.commit.op_class_0::FloatMultAcc            0      0.00%     80.88% # Class of committed instruction
system.cpu.commit.op_class_0::FloatDiv              0      0.00%     80.88% # Class of committed instruction
system.cpu.commit.op_class_0::FloatMisc             0      0.00%     80.88% # Class of committed instruction
system.cpu.commit.op_class_0::FloatSqrt             0      0.00%     80.88% # Class of committed instruction
system.cpu.commit.op_class_0::SimdAdd            6184      0.16%     81.04% # Class of committed instruction
system.cpu.commit.op_class_0::SimdAddAcc            0      0.00%     81.04% # Class of committed instruction
system.cpu.commit.op_class_0::SimdAlu           11116      0.29%     81.33% # Class of committed instruction
system.cpu.commit.op_class_0::SimdCmp               0      0.00%     81.33% # Class of committed instruction
system.cpu.commit.op_class_0::SimdCvt           12050      0.32%     81.65% # Class of committed instruction
system.cpu.commit.op_class_0::SimdMisc           6479      0.17%     81.82% # Class of committed instruction
system.cpu.commit.op_class_0::SimdMult              0      0.00%     81.82% # Class of committed instruction
system.cpu.commit.op_class_0::SimdMultAcc            0      0.00%     81.82% # Class of committed instruction
system.cpu.commit.op_class_0::SimdShift          1055      0.03%     81.85% # Class of committed instruction
system.cpu.commit.op_class_0::SimdShiftAcc            0      0.00%     81.85% # Class of committed instruction
system.cpu.commit.op_class_0::SimdDiv               0      0.00%     81.85% # Class of committed instruction
system.cpu.commit.op_class_0::SimdSqrt              0      0.00%     81.85% # Class of committed instruction
system.cpu.commit.op_class_0::SimdFloatAdd            0      0.00%     81.85% # Class of committed instruction
system.cpu.commit.op_class_0::SimdFloatAlu            0      0.00%     81.85% # Class of committed instruction
system.cpu.commit.op_class_0::SimdFloatCmp            0      0.00%     81.85% # Class of committed instruction
system.cpu.commit.op_class_0::SimdFloatCvt            0      0.00%     81.85% # Class of committed instruction
system.cpu.commit.op_class_0::SimdFloatDiv            0      0.00%     81.85% # Class of committed instruction
system.cpu.commit.op_class_0::SimdFloatMisc            0      0.00%     81.85% # Class of committed instruction
system.cpu.commit.op_class_0::SimdFloatMult            0      0.00%     81.85% # Class of committed instruction
system.cpu.commit.op_class_0::SimdFloatMultAcc            0      0.00%     81.85% # Class of committed instruction
system.cpu.commit.op_class_0::SimdFloatSqrt            0      0.00%     81.85% # Class of committed instruction
system.cpu.commit.op_class_0::SimdReduceAdd            0      0.00%     81.85% # Class of committed instruction
system.cpu.commit.op_class_0::SimdReduceAlu            0      0.00%     81.85% # Class of committed instruction
system.cpu.commit.op_class_0::SimdReduceCmp            0      0.00%     81.85% # Class of committed instruction
system.cpu.commit.op_class_0::SimdFloatReduceAdd            0      0.00%     81.85% # Class of committed instruction
system.cpu.commit.op_class_0::SimdFloatReduceCmp            0      0.00%     81.85% # Class of committed instruction
system.cpu.commit.op_class_0::SimdAes               0      0.00%     81.85% # Class of committed instruction
system.cpu.commit.op_class_0::SimdAesMix            0      0.00%     81.85% # Class of committed instruction
system.cpu.commit.op_class_0::SimdSha1Hash            0      0.00%     81.85% # Class of committed instruction
system.cpu.commit.op_class_0::SimdSha1Hash2            0      0.00%     81.85% # Class of committed instruction
system.cpu.commit.op_class_0::SimdSha256Hash            0      0.00%     81.85% # Class of committed instruction
system.cpu.commit.op_class_0::SimdSha256Hash2            0      0.00%     81.85% # Class of committed instruction
system.cpu.commit.op_class_0::SimdShaSigma2            0      0.00%     81.85% # Class of committed instruction
system.cpu.commit.op_class_0::SimdShaSigma3            0      0.00%     81.85% # Class of committed instruction
system.cpu.commit.op_class_0::SimdPredAlu            0      0.00%     81.85% # Class of committed instruction
system.cpu.commit.op_class_0::MemRead          487404     12.88%     94.73% # Class of committed instruction
system.cpu.commit.op_class_0::MemWrite         168461      4.45%     99.18% # Class of committed instruction
system.cpu.commit.op_class_0::FloatMemRead        19038      0.50%     99.68% # Class of committed instruction
system.cpu.commit.op_class_0::FloatMemWrite        12069      0.32%    100.00% # Class of committed instruction
system.cpu.commit.op_class_0::IprAccess             0      0.00%    100.00% # Class of committed instruction
system.cpu.commit.op_class_0::InstPrefetch            0      0.00%    100.00% # Class of committed instruction
system.cpu.commit.op_class_0::total           3785081                       # Class of committed instruction
system.cpu.commit.refs                         686972                       # Number of memory references committed
system.cpu.commit.swp_count                         0                       # Number of s/w prefetches committed
system.cpu.commit.vec_insts                         0                       # Number of committed Vector instructions.
system.cpu.committedInsts                     2180753                       # Number of Instructions Simulated
system.cpu.committedOps                       3785081                       # Number of Ops (including micro ops) Simulated
system.cpu.cpi                               1.286526                       # CPI: Cycles Per Instruction
system.cpu.cpi_total                         1.286526                       # CPI: Total CPI of All Threads
system.cpu.dcache.prefetcher.num_hwpf_issued         8035                       # number of hwpf issued
system.cpu.dcache.prefetcher.pfBufferHit        34115                       # number of redundant prefetches already in prefetch queue
system.cpu.dcache.prefetcher.pfIdentified        49804                       # number of prefetch candidates identified
system.cpu.dcache.prefetcher.pfInCache              0                       # number of redundant prefetches already in cache/mshr dropped
system.cpu.dcache.prefetcher.pfRemovedFull            0                       # number of prefetches dropped due to prefetch queue size
system.cpu.dcache.prefetcher.pfSpanPage          4536                       # number of prefetches that crossed the page
system.cpu.decode.BlockedCycles               1037004                       # Number of cycles decode is blocked
system.cpu.decode.DecodedInsts                4883068                       # Number of instructions handled by decode
system.cpu.decode.IdleCycles                   310225                       # Number of cycles decode is idle
system.cpu.decode.RunCycles                   1190013                       # Number of cycles decode is running
system.cpu.decode.SquashCycles                  24237                       # Number of cycles decode is squashing
system.cpu.decode.UnblockCycles                 93674                       # Number of cycles decode is unblocking
system.cpu.dtb.rdAccesses                      588878                       # TLB accesses on read requests
system.cpu.dtb.rdMisses                          2053                       # TLB misses on read requests
system.cpu.dtb.wrAccesses                      200140                       # TLB accesses on write requests
system.cpu.dtb.wrMisses                           149                       # TLB misses on write requests
system.cpu.fetch.Branches                      503412                       # Number of branches that fetch encountered
system.cpu.fetch.CacheLines                    262874                       # Number of cache lines fetched
system.cpu.fetch.Cycles                       2281295                       # Number of cycles fetch has run and was not squashing or blocked
system.cpu.fetch.IcacheSquashes                  4481                       # Number of outstanding Icache misses that were squashed
system.cpu.fetch.Insts                        2950851                       # Number of instructions fetch has processed
system.cpu.fetch.MiscStallCycles                   73                       # Number of cycles fetch has spent waiting on interrupts, or bad addresses, or out of MSHRs
system.cpu.fetch.PendingQuiesceStallCycles            8                       # Number of stall cycles due to pending quiesce instructions
system.cpu.fetch.PendingTrapStallCycles           373                       # Number of stall cycles due to pending traps
system.cpu.fetch.SquashCycles                   48474                       # Number of cycles fetch has spent squashing
system.cpu.fetch.branchRate                  0.179431                       # Number of branch fetches per cycle
system.cpu.fetch.icacheStallCycles             349167                       # Number of cycles fetch is stalled on an Icache miss
system.cpu.fetch.predictedBranches             261821                       # Number of branches that fetch has predicted taken
system.cpu.fetch.rate                        1.051773                       # Number of inst fetches per cycle
system.cpu.fetch.rateDist::samples            2655153                       # Number of instructions fetched each cycle (Total)
system.cpu.fetch.rateDist::mean              1.943858                       # Number of instructions fetched each cycle (Total)
system.cpu.fetch.rateDist::stdev             1.927191                       # Number of instructions fetched each cycle (Total)
system.cpu.fetch.rateDist::underflows               0      0.00%      0.00% # Number of instructions fetched each cycle (Total)
system.cpu.fetch.rateDist::0                  1250192     47.09%     47.09% # Number of instructions fetched each cycle (Total)
system.cpu.fetch.rateDist::1                    81611      3.07%     50.16% # Number of instructions fetched each cycle (Total)
system.cpu.fetch.rateDist::2                    67653      2.55%     52.71% # Number of instructions fetched each cycle (Total)
system.cpu.fetch.rateDist::3                    78464      2.96%     55.66% # Number of instructions fetched each cycle (Total)
system.cpu.fetch.rateDist::4                  1177233     44.34%    100.00% # Number of instructions fetched each cycle (Total)
system.cpu.fetch.rateDist::overflows                0      0.00%    100.00% # Number of instructions fetched each cycle (Total)
system.cpu.fetch.rateDist::min_value                0                       # Number of instructions fetched each cycle (Total)
system.cpu.fetch.rateDist::max_value                4                       # Number of instructions fetched each cycle (Total)
system.cpu.fetch.rateDist::total              2655153                       # Number of instructions fetched each cycle (Total)
system.cpu.fp_regfile_reads                    118159                       # number of floating regfile reads
system.cpu.fp_regfile_writes                    64783                       # number of floating regfile writes
system.cpu.fuPool.fu_ticks_busy::IntALU(0)    228035200                       # Total ticks fu was busy
system.cpu.fuPool.fu_ticks_busy::IntALU(1)    228035200                       # Total ticks fu was busy
system.cpu.fuPool.fu_ticks_busy::IntALU(2)    228035200                       # Total ticks fu was busy
system.cpu.fuPool.fu_ticks_busy::IntALU(3)    228034800                       # Total ticks fu was busy
system.cpu.fuPool.fu_ticks_busy::IntALU(4)    228034800                       # Total ticks fu was busy
system.cpu.fuPool.fu_ticks_busy::IntALU(5)    228034800                       # Total ticks fu was busy
system.cpu.fuPool.fu_ticks_busy::IntMultDiv(0)      9408000                       # Total ticks fu was busy
system.cpu.fuPool.fu_ticks_busy::IntMultDiv(1)      9408000                       # Total ticks fu was busy
system.cpu.fuPool.fu_ticks_busy::FP_ALU(0)       546000                       # Total ticks fu was busy
system.cpu.fuPool.fu_ticks_busy::FP_ALU(1)       546000                       # Total ticks fu was busy
system.cpu.fuPool.fu_ticks_busy::FP_ALU(2)       546000                       # Total ticks fu was busy
system.cpu.fuPool.fu_ticks_busy::FP_ALU(3)       546000                       # Total ticks fu was busy
system.cpu.fuPool.fu_ticks_busy::FP_MultDiv(0)            0                       # Total ticks fu was busy
system.cpu.fuPool.fu_ticks_busy::FP_MultDiv(1)            0                       # Total ticks fu was busy
system.cpu.fuPool.fu_ticks_busy::SIMD_Unit(0)      4361200                       # Total ticks fu was busy
system.cpu.fuPool.fu_ticks_busy::SIMD_Unit(1)      4390000                       # Total ticks fu was busy
system.cpu.fuPool.fu_ticks_busy::SIMD_Unit(2)      4476400                       # Total ticks fu was busy
system.cpu.fuPool.fu_ticks_busy::SIMD_Unit(3)      4442000                       # Total ticks fu was busy
system.cpu.fuPool.fu_ticks_busy::PredALU(0)            0                       # Total ticks fu was busy
system.cpu.fuPool.fu_ticks_busy::RdWrPort(0)     80339600                       # Total ticks fu was busy
system.cpu.fuPool.fu_ticks_busy::RdWrPort(1)     80391200                       # Total ticks fu was busy
system.cpu.fuPool.fu_ticks_busy::RdWrPort(2)     80369600                       # Total ticks fu was busy
system.cpu.fuPool.fu_ticks_busy::RdWrPort(3)     80327600                       # Total ticks fu was busy
system.cpu.fuPool.fu_ticks_busy::IprPort(0)            0                       # Total ticks fu was busy
system.cpu.fuPool.fu_ticks_busy::total     1728307600                       # Total ticks fu was busy
system.cpu.icache.prefetcher.num_hwpf_issued            0                       # number of hwpf issued
system.cpu.icache.prefetcher.pfBufferHit            0                       # number of redundant prefetches already in prefetch queue
system.cpu.icache.prefetcher.pfIdentified            0                       # number of prefetch candidates identified
system.cpu.icache.prefetcher.pfInCache              0                       # number of redundant prefetches already in cache/mshr dropped
system.cpu.icache.prefetcher.pfRemovedFull            0                       # number of prefetches dropped due to prefetch queue size
system.cpu.icache.prefetcher.pfSpanPage             0                       # number of prefetches that crossed the page
system.cpu.idleCycles                          150443                       # Total number of cycles that the CPU has spent unscheduled due to idling
system.cpu.iew.branchMispredicts                28450                       # Number of branch mispredicts detected at execute
system.cpu.iew.exec_branches                   389456                       # Number of branches executed
system.cpu.iew.exec_nop                             0                       # number of nop insts executed
system.cpu.iew.exec_rate                     1.537059                       # Inst execution rate
system.cpu.iew.exec_refs                       790771                       # number of memory reference insts executed
system.cpu.iew.exec_stores                     200129                       # Number of stores executed
system.cpu.iew.exec_swp                             0                       # number of swp insts executed
system.cpu.iew.iewBlockCycles                  687781                       # Number of cycles IEW is blocking
system.cpu.iew.iewDispLoadInsts                621397                       # Number of dispatched load instructions
system.cpu.iew.iewDispNonSpecInsts                905                       # Number of dispatched non-speculative instructions
system.cpu.iew.iewDispSquashedInsts               572                       # Number of squashed instructions skipped by dispatch
system.cpu.iew.iewDispStoreInsts               210481                       # Number of dispatched store instructions
system.cpu.iew.iewDispatchedInsts             4667084                       # Number of instructions dispatched to IQ
system.cpu.iew.iewExecLoadInsts                590642                       # Number of load instructions executed
system.cpu.iew.iewExecSquashedInsts             34399                       # Number of squashed instructions skipped in execute
system.cpu.iew.iewExecutedInsts               4312366                       # Number of executed instructions
system.cpu.iew.iewIQFullEvents                   3266                       # Number of times the IQ has become full, causing a stall
system.cpu.iew.iewIdleCycles                        0                       # Number of cycles IEW is idle
system.cpu.iew.iewLSQFullEvents                  8657                       # Number of times the LSQ has become full, causing a stall
system.cpu.iew.iewSquashCycles                  24237                       # Number of cycles IEW is squashing
system.cpu.iew.iewUnblockCycles                 14820                       # Number of cycles IEW is unblocking
system.cpu.iew.lsq.thread0.blockedLoads             0                       # Number of blocked loads due to partial load-store forwarding
system.cpu.iew.lsq.thread0.cacheBlocked           609                       # Number of times an access to memory failed due to the cache being blocked
system.cpu.iew.lsq.thread0.forwLoads            42538                       # Number of loads that had data forwarded from stores
system.cpu.iew.lsq.thread0.ignoredResponses          232                       # Number of memory responses ignored because the instruction is squashed
system.cpu.iew.lsq.thread0.invAddrLoads             0                       # Number of loads ignored due to an invalid address
system.cpu.iew.lsq.thread0.invAddrSwpfs             0                       # Number of software prefetches ignored due to an invalid address
system.cpu.iew.lsq.thread0.memOrderViolation           79                       # Number of memory ordering violations
system.cpu.iew.lsq.thread0.rescheduledLoads            0                       # Number of loads that were rescheduled
system.cpu.iew.lsq.thread0.squashedLoads       114953                       # Number of loads squashed
system.cpu.iew.lsq.thread0.squashedStores        29950                       # Number of stores squashed
system.cpu.iew.memOrderViolationEvents             79                       # Number of memory order violations
system.cpu.iew.predictedNotTakenIncorrect        20469                       # Number of branches that were predicted not taken incorrectly
system.cpu.iew.predictedTakenIncorrect           7981                       # Number of branches that were predicted taken incorrectly
system.cpu.iew.wb_consumers                   6071723                       # num instructions consuming a value
system.cpu.iew.wb_count                       4290823                       # cumulative count of insts written-back
system.cpu.iew.wb_fanout                     0.565681                       # average fanout of values written-back
system.cpu.iew.wb_producers                   3434659                       # num instructions producing a value
system.cpu.iew.wb_rate                       1.529380                       # insts written-back per cycle
system.cpu.iew.wb_sent                        4297659                       # cumulative count of insts sent to commit
system.cpu.int_regfile_reads                  6691625                       # number of integer regfile reads
system.cpu.int_regfile_writes                 3716938                       # number of integer regfile writes
system.cpu.ipc                               0.777287                       # IPC: Instructions Per Cycle
system.cpu.ipc_total                         0.777287                       # IPC: Total IPC of All Threads
system.cpu.iq.FU_type_0::No_OpClass             25996      0.60%      0.60% # Type of FU issued
system.cpu.iq.FU_type_0::IntAlu               3420526     78.69%     79.29% # Type of FU issued
system.cpu.iq.FU_type_0::IntMult                 5396      0.12%     79.41% # Type of FU issued
system.cpu.iq.FU_type_0::IntDiv                 41644      0.96%     80.37% # Type of FU issued
system.cpu.iq.FU_type_0::FloatAdd                4232      0.10%     80.47% # Type of FU issued
system.cpu.iq.FU_type_0::FloatCmp                   0      0.00%     80.47% # Type of FU issued
system.cpu.iq.FU_type_0::FloatCvt                1228      0.03%     80.50% # Type of FU issued
system.cpu.iq.FU_type_0::FloatMult                  0      0.00%     80.50% # Type of FU issued
system.cpu.iq.FU_type_0::FloatMultAcc               0      0.00%     80.50% # Type of FU issued
system.cpu.iq.FU_type_0::FloatDiv                   0      0.00%     80.50% # Type of FU issued
system.cpu.iq.FU_type_0::FloatMisc                  0      0.00%     80.50% # Type of FU issued
system.cpu.iq.FU_type_0::FloatSqrt                  0      0.00%     80.50% # Type of FU issued
system.cpu.iq.FU_type_0::SimdAdd                 6715      0.15%     80.65% # Type of FU issued
system.cpu.iq.FU_type_0::SimdAddAcc                 0      0.00%     80.65% # Type of FU issued
system.cpu.iq.FU_type_0::SimdAlu                14921      0.34%     80.99% # Type of FU issued
system.cpu.iq.FU_type_0::SimdCmp                    0      0.00%     80.99% # Type of FU issued
system.cpu.iq.FU_type_0::SimdCvt                13581      0.31%     81.31% # Type of FU issued
system.cpu.iq.FU_type_0::SimdMisc                6974      0.16%     81.47% # Type of FU issued
system.cpu.iq.FU_type_0::SimdMult                   0      0.00%     81.47% # Type of FU issued
system.cpu.iq.FU_type_0::SimdMultAcc                0      0.00%     81.47% # Type of FU issued
system.cpu.iq.FU_type_0::SimdShift               1983      0.05%     81.51% # Type of FU issued
system.cpu.iq.FU_type_0::SimdShiftAcc               0      0.00%     81.51% # Type of FU issued
system.cpu.iq.FU_type_0::SimdDiv                    0      0.00%     81.51% # Type of FU issued
system.cpu.iq.FU_type_0::SimdSqrt                   0      0.00%     81.51% # Type of FU issued
system.cpu.iq.FU_type_0::SimdFloatAdd               0      0.00%     81.51% # Type of FU issued
system.cpu.iq.FU_type_0::SimdFloatAlu               0      0.00%     81.51% # Type of FU issued
system.cpu.iq.FU_type_0::SimdFloatCmp               0      0.00%     81.51% # Type of FU issued
system.cpu.iq.FU_type_0::SimdFloatCvt               0      0.00%     81.51% # Type of FU issued
system.cpu.iq.FU_type_0::SimdFloatDiv               0      0.00%     81.51% # Type of FU issued
system.cpu.iq.FU_type_0::SimdFloatMisc              0      0.00%     81.51% # Type of FU issued
system.cpu.iq.FU_type_0::SimdFloatMult              0      0.00%     81.51% # Type of FU issued
system.cpu.iq.FU_type_0::SimdFloatMultAcc            0      0.00%     81.51% # Type of FU issued
system.cpu.iq.FU_type_0::SimdFloatSqrt              0      0.00%     81.51% # Type of FU issued
system.cpu.iq.FU_type_0::SimdReduceAdd              0      0.00%     81.51% # Type of FU issued
system.cpu.iq.FU_type_0::SimdReduceAlu              0      0.00%     81.51% # Type of FU issued
system.cpu.iq.FU_type_0::SimdReduceCmp              0      0.00%     81.51% # Type of FU issued
system.cpu.iq.FU_type_0::SimdFloatReduceAdd            0      0.00%     81.51% # Type of FU issued
system.cpu.iq.FU_type_0::SimdFloatReduceCmp            0      0.00%     81.51% # Type of FU issued
system.cpu.iq.FU_type_0::SimdAes                    0      0.00%     81.51% # Type of FU issued
system.cpu.iq.FU_type_0::SimdAesMix                 0      0.00%     81.51% # Type of FU issued
system.cpu.iq.FU_type_0::SimdSha1Hash               0      0.00%     81.51% # Type of FU issued
system.cpu.iq.FU_type_0::SimdSha1Hash2              0      0.00%     81.51% # Type of FU issued
system.cpu.iq.FU_type_0::SimdSha256Hash             0      0.00%     81.51% # Type of FU issued
system.cpu.iq.FU_type_0::SimdSha256Hash2            0      0.00%     81.51% # Type of FU issued
system.cpu.iq.FU_type_0::SimdShaSigma2              0      0.00%     81.51% # Type of FU issued
system.cpu.iq.FU_type_0::SimdShaSigma3              0      0.00%     81.51% # Type of FU issued
system.cpu.iq.FU_type_0::SimdPredAlu                0      0.00%     81.51% # Type of FU issued
system.cpu.iq.FU_type_0::MemRead               576285     13.26%     94.77% # Type of FU issued
system.cpu.iq.FU_type_0::MemWrite              189081      4.35%     99.12% # Type of FU issued
system.cpu.iq.FU_type_0::FloatMemRead           24638      0.57%     99.69% # Type of FU issued
system.cpu.iq.FU_type_0::FloatMemWrite          13568      0.31%    100.00% # Type of FU issued
system.cpu.iq.FU_type_0::IprAccess                  0      0.00%    100.00% # Type of FU issued
system.cpu.iq.FU_type_0::InstPrefetch               0      0.00%    100.00% # Type of FU issued
system.cpu.iq.FU_type_0::total                4346768                       # Type of FU issued
system.cpu.iq.fp_alu_accesses                   88817                       # Number of floating point alu accesses
system.cpu.iq.fp_inst_queue_reads              178905                       # Number of floating instruction queue reads
system.cpu.iq.fp_inst_queue_wakeup_accesses        85603                       # Number of floating instruction queue wakeup accesses
system.cpu.iq.fp_inst_queue_writes             128700                       # Number of floating instruction queue writes
system.cpu.iq.fu_busy_cnt                           0                       # FU busy when requested
system.cpu.iq.fu_busy_rate                          0                       # FU busy rate (busy events/executed inst)
system.cpu.iq.fu_full::No_OpClass                   0                       # attempts to use FU when none available
system.cpu.iq.fu_full::IntAlu                       0                       # attempts to use FU when none available
system.cpu.iq.fu_full::IntMult                      0                       # attempts to use FU when none available
system.cpu.iq.fu_full::IntDiv                       0                       # attempts to use FU when none available
system.cpu.iq.fu_full::FloatAdd                     0                       # attempts to use FU when none available
system.cpu.iq.fu_full::FloatCmp                     0                       # attempts to use FU when none available
system.cpu.iq.fu_full::FloatCvt                     0                       # attempts to use FU when none available
system.cpu.iq.fu_full::FloatMult                    0                       # attempts to use FU when none available
system.cpu.iq.fu_full::FloatMultAcc                 0                       # attempts to use FU when none available
system.cpu.iq.fu_full::FloatDiv                     0                       # attempts to use FU when none available
system.cpu.iq.fu_full::FloatMisc                    0                       # attempts to use FU when none available
system.cpu.iq.fu_full::FloatSqrt                    0                       # attempts to use FU when none available
system.cpu.iq.fu_full::SimdAdd                      0                       # attempts to use FU when none available
system.cpu.iq.fu_full::SimdAddAcc                   0                       # attempts to use FU when none available
system.cpu.iq.fu_full::SimdAlu                      0                       # attempts to use FU when none available
system.cpu.iq.fu_full::SimdCmp                      0                       # attempts to use FU when none available
system.cpu.iq.fu_full::SimdCvt                      0                       # attempts to use FU when none available
system.cpu.iq.fu_full::SimdMisc                     0                       # attempts to use FU when none available
system.cpu.iq.fu_full::SimdMult                     0                       # attempts to use FU when none available
system.cpu.iq.fu_full::SimdMultAcc                  0                       # attempts to use FU when none available
system.cpu.iq.fu_full::SimdShift                    0                       # attempts to use FU when none available
system.cpu.iq.fu_full::SimdShiftAcc                 0                       # attempts to use FU when none available
system.cpu.iq.fu_full::SimdDiv                      0                       # attempts to use FU when none available
system.cpu.iq.fu_full::SimdSqrt                     0                       # attempts to use FU when none available
system.cpu.iq.fu_full::SimdFloatAdd                 0                       # attempts to use FU when none available
system.cpu.iq.fu_full::SimdFloatAlu                 0                       # attempts to use FU when none available
system.cpu.iq.fu_full::SimdFloatCmp                 0                       # attempts to use FU when none available
system.cpu.iq.fu_full::SimdFloatCvt                 0                       # attempts to use FU when none available
system.cpu.iq.fu_full::SimdFloatDiv                 0                       # attempts to use FU when none available
system.cpu.iq.fu_full::SimdFloatMisc                0                       # attempts to use FU when none available
system.cpu.iq.fu_full::SimdFloatMult                0                       # attempts to use FU when none available
system.cpu.iq.fu_full::SimdFloatMultAcc             0                       # attempts to use FU when none available
system.cpu.iq.fu_full::SimdFloatSqrt                0                       # attempts to use FU when none available
system.cpu.iq.fu_full::SimdReduceAdd                0                       # attempts to use FU when none available
system.cpu.iq.fu_full::SimdReduceAlu                0                       # attempts to use FU when none available
system.cpu.iq.fu_full::SimdReduceCmp                0                       # attempts to use FU when none available
system.cpu.iq.fu_full::SimdFloatReduceAdd            0                       # attempts to use FU when none available
system.cpu.iq.fu_full::SimdFloatReduceCmp            0                       # attempts to use FU when none available
system.cpu.iq.fu_full::SimdAes                      0                       # attempts to use FU when none available
system.cpu.iq.fu_full::SimdAesMix                   0                       # attempts to use FU when none available
system.cpu.iq.fu_full::SimdSha1Hash                 0                       # attempts to use FU when none available
system.cpu.iq.fu_full::SimdSha1Hash2                0                       # attempts to use FU when none available
system.cpu.iq.fu_full::SimdSha256Hash               0                       # attempts to use FU when none available
system.cpu.iq.fu_full::SimdSha256Hash2              0                       # attempts to use FU when none available
system.cpu.iq.fu_full::SimdShaSigma2                0                       # attempts to use FU when none available
system.cpu.iq.fu_full::SimdShaSigma3                0                       # attempts to use FU when none available
system.cpu.iq.fu_full::SimdPredAlu                  0                       # attempts to use FU when none available
system.cpu.iq.fu_full::MemRead                      0                       # attempts to use FU when none available
system.cpu.iq.fu_full::MemWrite                     0                       # attempts to use FU when none available
system.cpu.iq.fu_full::FloatMemRead                 0                       # attempts to use FU when none available
system.cpu.iq.fu_full::FloatMemWrite                0                       # attempts to use FU when none available
system.cpu.iq.fu_full::IprAccess                    0                       # attempts to use FU when none available
system.cpu.iq.fu_full::InstPrefetch                 0                       # attempts to use FU when none available
system.cpu.iq.int_alu_accesses                4231955                       # Number of integer alu accesses
system.cpu.iq.int_inst_queue_reads           11188574                       # Number of integer instruction queue reads
system.cpu.iq.int_inst_queue_wakeup_accesses      4205220                       # Number of integer instruction queue wakeup accesses
system.cpu.iq.int_inst_queue_writes           5420453                       # Number of integer instruction queue writes
system.cpu.iq.iqInstsAdded                    4666037                       # Number of instructions added to the IQ (excludes non-spec)
system.cpu.iq.iqInstsIssued                   4346768                       # Number of instructions issued
system.cpu.iq.iqNonSpecInstsAdded                1047                       # Number of non-speculative instructions added to the IQ
system.cpu.iq.iqSquashedInstsExamined          881992                       # Number of squashed instructions iterated over during squash; mainly for profiling
system.cpu.iq.iqSquashedInstsIssued             18793                       # Number of squashed instructions issued
system.cpu.iq.iqSquashedNonSpecRemoved            315                       # Number of squashed non-spec instructions that were removed
system.cpu.iq.iqSquashedOperandsExamined      1318085                       # Number of squashed operands that are examined and possibly removed from graph
system.cpu.iq.issued_per_cycle::samples       2655153                       # Number of insts issued each cycle
system.cpu.iq.issued_per_cycle::mean         1.637106                       # Number of insts issued each cycle
system.cpu.iq.issued_per_cycle::stdev        1.657333                       # Number of insts issued each cycle
system.cpu.iq.issued_per_cycle::underflows            0      0.00%      0.00% # Number of insts issued each cycle
system.cpu.iq.issued_per_cycle::0             1167129     43.96%     43.96% # Number of insts issued each cycle
system.cpu.iq.issued_per_cycle::1              197600      7.44%     51.40% # Number of insts issued each cycle
system.cpu.iq.issued_per_cycle::2              326241     12.29%     63.69% # Number of insts issued each cycle
system.cpu.iq.issued_per_cycle::3              360046     13.56%     77.25% # Number of insts issued each cycle
system.cpu.iq.issued_per_cycle::4              604137     22.75%    100.00% # Number of insts issued each cycle
system.cpu.iq.issued_per_cycle::overflows            0      0.00%    100.00% # Number of insts issued each cycle
system.cpu.iq.issued_per_cycle::min_value            0                       # Number of insts issued each cycle
system.cpu.iq.issued_per_cycle::max_value            4                       # Number of insts issued each cycle
system.cpu.iq.issued_per_cycle::total         2655153                       # Number of insts issued each cycle
system.cpu.iq.rate                           1.549321                       # Inst issue rate
system.cpu.iq.vec_alu_accesses                      0                       # Number of vector alu accesses
system.cpu.iq.vec_inst_queue_reads                  0                       # Number of vector instruction queue reads
system.cpu.iq.vec_inst_queue_wakeup_accesses            0                       # Number of vector instruction queue wakeup accesses
system.cpu.iq.vec_inst_queue_writes                 0                       # Number of vector instruction queue writes
system.cpu.itb.rdAccesses                           0                       # TLB accesses on read requests
system.cpu.itb.rdMisses                             0                       # TLB misses on read requests
system.cpu.itb.wrAccesses                      262939                       # TLB accesses on write requests
system.cpu.itb.wrMisses                           303                       # TLB misses on write requests
system.cpu.memDep0.conflictingLoads             15590                       # Number of conflicting loads.
system.cpu.memDep0.conflictingStores             6545                       # Number of conflicting stores.
system.cpu.memDep0.insertedLoads               621397                       # Number of loads inserted to the mem dependence unit.
system.cpu.memDep0.insertedStores              210481                       # Number of stores inserted to the mem dependence unit.
system.cpu.misc_regfile_reads                 1611272                       # number of misc regfile reads
system.cpu.misc_regfile_writes                    675                       # number of misc regfile writes
system.cpu.numCycles                          2805596                       # number of cpu cycles simulated
system.cpu.numWorkItemsCompleted                    0                       # number of work items this cpu completed
system.cpu.numWorkItemsStarted                      0                       # number of work items this cpu started
system.cpu.process.numSyscalls                     56                       # Number of system calls
system.cpu.rename.BlockCycles                  834116                       # Number of cycles rename is blocking
system.cpu.rename.CommittedMaps               5216730                       # Number of HB maps that are committed
system.cpu.rename.FullRegisterEvents              188                       # Number of times there has been no free registers
system.cpu.rename.IQFullEvents                  53994                       # Number of times rename has blocked due to IQ full
system.cpu.rename.IdleCycles                   363328                       # Number of cycles rename is idle
system.cpu.rename.LQFullEvents                  17575                       # Number of times rename has blocked due to LQ full
system.cpu.rename.ROBFullEvents                  4576                       # Number of times rename has blocked due to ROB full
system.cpu.rename.RenameLookups              12496224                       # Number of register rename lookups that rename has made
system.cpu.rename.RenamedInsts                4808120                       # Number of instructions processed by rename
system.cpu.rename.RenamedOperands             6607515                       # Number of destination operands rename has renamed
system.cpu.rename.RunCycles                   1221861                       # Number of cycles rename is running
system.cpu.rename.SQFullEvents                  82027                       # Number of times rename has blocked due to SQ full
system.cpu.rename.SquashCycles                  24237                       # Number of cycles rename is squashing
system.cpu.rename.UnblockCycles                192136                       # Number of cycles rename is unblocking
system.cpu.rename.UndoneMaps                  1390762                       # Number of HB maps that are undone due to squashing
system.cpu.rename.fp_rename_lookups            151763                       # Number of floating rename lookups
system.cpu.rename.int_rename_lookups          7636444                       # Number of integer rename lookups
system.cpu.rename.serializeStallCycles          19475                       # count of cycles rename stalled for serializing inst
system.cpu.rename.serializingInsts                870                       # count of serializing insts renamed
system.cpu.rename.skidInsts                    223339                       # count of insts added to the skid buffer
system.cpu.rename.tempSerializingInsts            919                       # count of temporary serializing insts renamed
system.cpu.rob.rob_reads                      6459875                       # The number of ROB reads
system.cpu.rob.rob_writes                     9575715                       # The number of ROB writes
system.cpu.timesIdled                            1470                       # Number of times that the entire CPU went into an idle state and unscheduled itself
system.l2bus.snoop_filter.hit_multi_requests            9                       # Number of requests hitting in the snoop filter with multiple (>1) holders of the requested data.
system.l2bus.snoop_filter.hit_multi_snoops            1                       # Number of snoops hitting in the snoop filter with multiple (>1) holders of the requested data.
system.l2bus.snoop_filter.hit_single_requests        18219                       # Number of requests hitting in the snoop filter with a single holder of the requested data.
system.l2bus.snoop_filter.hit_single_snoops          452                       # Number of snoops hitting in the snoop filter with a single holder of the requested data.
system.l2bus.snoop_filter.tot_requests          37716                       # Total number of requests made to the snoop filter.
system.l2bus.snoop_filter.tot_snoops              453                       # Total number of snoops made to the snoop filter.
system.l2cache.prefetcher.num_hwpf_issued          756                       # number of hwpf issued
system.l2cache.prefetcher.pfBufferHit               0                       # number of redundant prefetches already in prefetch queue
system.l2cache.prefetcher.pfIdentified            756                       # number of prefetch candidates identified
system.l2cache.prefetcher.pfInCache                 0                       # number of redundant prefetches already in cache/mshr dropped
system.l2cache.prefetcher.pfRemovedFull             0                       # number of prefetches dropped due to prefetch queue size
system.l2cache.prefetcher.pfSpanPage               92                       # number of prefetches that crossed the page
system.membus.snoop_filter.hit_multi_requests            0                       # Number of requests hitting in the snoop filter with multiple (>1) holders of the requested data.
system.membus.snoop_filter.hit_multi_snoops            0                       # Number of snoops hitting in the snoop filter with multiple (>1) holders of the requested data.
system.membus.snoop_filter.hit_single_requests         9409                       # Number of requests hitting in the snoop filter with a single holder of the requested data.
system.membus.snoop_filter.hit_single_snoops            0                       # Number of snoops hitting in the snoop filter with a single holder of the requested data.
system.membus.snoop_filter.tot_requests         22940                       # Total number of requests made to the snoop filter.
system.membus.snoop_filter.tot_snoops               0                       # Total number of snoops made to the snoop filter.
system.membus.pwrStateResidencyTicks::UNDEFINED   1122238000                       # Cumulative time (in ticks) in various power states
system.membus.trans_dist::ReadResp              12107                       # Transaction distribution
system.membus.trans_dist::WritebackDirty         1323                       # Transaction distribution
system.membus.trans_dist::CleanEvict             8086                       # Transaction distribution
system.membus.trans_dist::ReadExReq              1424                       # Transaction distribution
system.membus.trans_dist::ReadExResp             1424                       # Transaction distribution
system.membus.trans_dist::ReadSharedReq         12107                       # Transaction distribution
system.membus.pkt_count_system.l2cache.mem_side::system.mem_ctrl.port        36471                       # Packet count per connected master and slave (bytes)
system.membus.pkt_count_system.l2cache.mem_side::total        36471                       # Packet count per connected master and slave (bytes)
system.membus.pkt_count::total                  36471                       # Packet count per connected master and slave (bytes)
system.membus.pkt_size_system.l2cache.mem_side::system.mem_ctrl.port       950656                       # Cumulative packet size per connected master and slave (bytes)
system.membus.pkt_size_system.l2cache.mem_side::total       950656                       # Cumulative packet size per connected master and slave (bytes)
system.membus.pkt_size::total                  950656                       # Cumulative packet size per connected master and slave (bytes)
system.membus.snoops                                0                       # Total snoops (count)
system.membus.snoopTraffic                          0                       # Total snoop traffic (bytes)
system.membus.snoop_fanout::samples             13531                       # Request fanout histogram
system.membus.snoop_fanout::mean                    0                       # Request fanout histogram
system.membus.snoop_fanout::stdev                   0                       # Request fanout histogram
system.membus.snoop_fanout::underflows              0      0.00%      0.00% # Request fanout histogram
system.membus.snoop_fanout::0                   13531    100.00%    100.00% # Request fanout histogram
system.membus.snoop_fanout::1                       0      0.00%    100.00% # Request fanout histogram
system.membus.snoop_fanout::overflows               0      0.00%    100.00% # Request fanout histogram
system.membus.snoop_fanout::min_value               0                       # Request fanout histogram
system.membus.snoop_fanout::max_value               0                       # Request fanout histogram
system.membus.snoop_fanout::total               13531                       # Request fanout histogram
system.membus.reqLayer2.occupancy            11327020                       # Layer occupancy (ticks)
system.membus.reqLayer2.utilization               1.0                       # Layer utilization (%)
system.membus.respLayer0.occupancy           29389480                       # Layer occupancy (ticks)
system.membus.respLayer0.utilization              2.6                       # Layer utilization (%)
system.l2bus.pwrStateResidencyTicks::UNDEFINED   1122238000                       # Cumulative time (in ticks) in various power states
system.l2bus.trans_dist::ReadResp               17323                       # Transaction distribution
system.l2bus.trans_dist::WritebackDirty          4130                       # Transaction distribution
system.l2bus.trans_dist::CleanEvict             23588                       # Transaction distribution
system.l2bus.trans_dist::HardPFReq               1058                       # Transaction distribution
system.l2bus.trans_dist::ReadExReq               2175                       # Transaction distribution
system.l2bus.trans_dist::ReadExResp              2175                       # Transaction distribution
system.l2bus.trans_dist::ReadSharedReq          17323                       # Transaction distribution
system.l2bus.pkt_count_system.cpu.icache.mem_side::system.l2cache.cpu_side         7500                       # Packet count per connected master and slave (bytes)
system.l2bus.pkt_count_system.cpu.dcache.mem_side::system.l2cache.cpu_side        49712                       # Packet count per connected master and slave (bytes)
system.l2bus.pkt_count::total                   57212                       # Packet count per connected master and slave (bytes)
system.l2bus.pkt_size_system.cpu.icache.mem_side::system.l2cache.cpu_side       165376                       # Cumulative packet size per connected master and slave (bytes)
system.l2bus.pkt_size_system.cpu.dcache.mem_side::system.l2cache.cpu_side      1262016                       # Cumulative packet size per connected master and slave (bytes)
system.l2bus.pkt_size::total                  1427392                       # Cumulative packet size per connected master and slave (bytes)
system.l2bus.snoops                             10560                       # Total snoops (count)
system.l2bus.snoopTraffic                       84800                       # Total snoop traffic (bytes)
system.l2bus.snoop_fanout::samples              30056                       # Request fanout histogram
system.l2bus.snoop_fanout::mean              0.015438                       # Request fanout histogram
system.l2bus.snoop_fanout::stdev             0.123558                       # Request fanout histogram
system.l2bus.snoop_fanout::underflows               0      0.00%      0.00% # Request fanout histogram
system.l2bus.snoop_fanout::0                    29593     98.46%     98.46% # Request fanout histogram
system.l2bus.snoop_fanout::1                      462      1.54%    100.00% # Request fanout histogram
system.l2bus.snoop_fanout::2                        1      0.00%    100.00% # Request fanout histogram
system.l2bus.snoop_fanout::overflows                0      0.00%    100.00% # Request fanout histogram
system.l2bus.snoop_fanout::min_value                0                       # Request fanout histogram
system.l2bus.snoop_fanout::max_value                2                       # Request fanout histogram
system.l2bus.snoop_fanout::total                30056                       # Request fanout histogram
system.l2bus.respLayer1.occupancy            20295198                       # Layer occupancy (ticks)
system.l2bus.respLayer1.utilization               1.8                       # Layer utilization (%)
system.l2bus.reqLayer0.occupancy             18803743                       # Layer occupancy (ticks)
system.l2bus.reqLayer0.utilization                1.7                       # Layer utilization (%)
system.l2bus.respLayer0.occupancy             3103200                       # Layer occupancy (ticks)
system.l2bus.respLayer0.utilization               0.3                       # Layer utilization (%)
system.clk_domain.clock                           400                       # Clock period in ticks
system.clk_domain.voltage_domain.voltage            1                       # Voltage in Volts
system.cpu.pwrStateResidencyTicks::ON      1122238000                       # Cumulative time (in ticks) in various power states
system.cpu.icache.pwrStateResidencyTicks::UNDEFINED   1122238000                       # Cumulative time (in ticks) in various power states
system.cpu.icache.demand_hits::.cpu.inst       259601                       # number of demand (read+write) hits
system.cpu.icache.demand_hits::total           259601                       # number of demand (read+write) hits
system.cpu.icache.overall_hits::.cpu.inst       259601                       # number of overall hits
system.cpu.icache.overall_hits::total          259601                       # number of overall hits
system.cpu.icache.demand_misses::.cpu.inst         3272                       # number of demand (read+write) misses
system.cpu.icache.demand_misses::total           3272                       # number of demand (read+write) misses
system.cpu.icache.overall_misses::.cpu.inst         3272                       # number of overall misses
system.cpu.icache.overall_misses::total          3272                       # number of overall misses
system.cpu.icache.demand_miss_latency::.cpu.inst    166023200                       # number of demand (read+write) miss cycles
system.cpu.icache.demand_miss_latency::total    166023200                       # number of demand (read+write) miss cycles
system.cpu.icache.overall_miss_latency::.cpu.inst    166023200                       # number of overall miss cycles
system.cpu.icache.overall_miss_latency::total    166023200                       # number of overall miss cycles
system.cpu.icache.demand_accesses::.cpu.inst       262873                       # number of demand (read+write) accesses
system.cpu.icache.demand_accesses::total       262873                       # number of demand (read+write) accesses
system.cpu.icache.overall_accesses::.cpu.inst       262873                       # number of overall (read+write) accesses
system.cpu.icache.overall_accesses::total       262873                       # number of overall (read+write) accesses
system.cpu.icache.demand_miss_rate::.cpu.inst     0.012447                       # miss rate for demand accesses
system.cpu.icache.demand_miss_rate::total     0.012447                       # miss rate for demand accesses
system.cpu.icache.overall_miss_rate::.cpu.inst     0.012447                       # miss rate for overall accesses
system.cpu.icache.overall_miss_rate::total     0.012447                       # miss rate for overall accesses
system.cpu.icache.demand_avg_miss_latency::.cpu.inst 50740.586797                       # average overall miss latency
system.cpu.icache.demand_avg_miss_latency::total 50740.586797                       # average overall miss latency
system.cpu.icache.overall_avg_miss_latency::.cpu.inst 50740.586797                       # average overall miss latency
system.cpu.icache.overall_avg_miss_latency::total 50740.586797                       # average overall miss latency
system.cpu.icache.blocked_cycles::no_mshrs           39                       # number of cycles access was blocked
system.cpu.icache.blocked_cycles::no_targets            0                       # number of cycles access was blocked
system.cpu.icache.blocked::no_mshrs                 2                       # number of cycles access was blocked
system.cpu.icache.blocked::no_targets               0                       # number of cycles access was blocked
system.cpu.icache.avg_blocked_cycles::no_mshrs    19.500000                       # average number of cycles each access was blocked
system.cpu.icache.avg_blocked_cycles::no_targets          nan                       # average number of cycles each access was blocked
system.cpu.icache.demand_mshr_hits::.cpu.inst          686                       # number of demand (read+write) MSHR hits
system.cpu.icache.demand_mshr_hits::total          686                       # number of demand (read+write) MSHR hits
system.cpu.icache.overall_mshr_hits::.cpu.inst          686                       # number of overall MSHR hits
system.cpu.icache.overall_mshr_hits::total          686                       # number of overall MSHR hits
system.cpu.icache.demand_mshr_misses::.cpu.inst         2586                       # number of demand (read+write) MSHR misses
system.cpu.icache.demand_mshr_misses::total         2586                       # number of demand (read+write) MSHR misses
system.cpu.icache.overall_mshr_misses::.cpu.inst         2586                       # number of overall MSHR misses
system.cpu.icache.overall_mshr_misses::total         2586                       # number of overall MSHR misses
system.cpu.icache.demand_mshr_miss_latency::.cpu.inst    132443600                       # number of demand (read+write) MSHR miss cycles
system.cpu.icache.demand_mshr_miss_latency::total    132443600                       # number of demand (read+write) MSHR miss cycles
system.cpu.icache.overall_mshr_miss_latency::.cpu.inst    132443600                       # number of overall MSHR miss cycles
system.cpu.icache.overall_mshr_miss_latency::total    132443600                       # number of overall MSHR miss cycles
system.cpu.icache.demand_mshr_miss_rate::.cpu.inst     0.009837                       # mshr miss rate for demand accesses
system.cpu.icache.demand_mshr_miss_rate::total     0.009837                       # mshr miss rate for demand accesses
system.cpu.icache.overall_mshr_miss_rate::.cpu.inst     0.009837                       # mshr miss rate for overall accesses
system.cpu.icache.overall_mshr_miss_rate::total     0.009837                       # mshr miss rate for overall accesses
system.cpu.icache.demand_avg_mshr_miss_latency::.cpu.inst 51215.622583                       # average overall mshr miss latency
system.cpu.icache.demand_avg_mshr_miss_latency::total 51215.622583                       # average overall mshr miss latency
system.cpu.icache.overall_avg_mshr_miss_latency::.cpu.inst 51215.622583                       # average overall mshr miss latency
system.cpu.icache.overall_avg_mshr_miss_latency::total 51215.622583                       # average overall mshr miss latency
system.cpu.icache.replacements                   2330                       # number of replacements
system.cpu.icache.ReadReq_hits::.cpu.inst       259601                       # number of ReadReq hits
system.cpu.icache.ReadReq_hits::total          259601                       # number of ReadReq hits
system.cpu.icache.ReadReq_misses::.cpu.inst         3272                       # number of ReadReq misses
system.cpu.icache.ReadReq_misses::total          3272                       # number of ReadReq misses
system.cpu.icache.ReadReq_miss_latency::.cpu.inst    166023200                       # number of ReadReq miss cycles
system.cpu.icache.ReadReq_miss_latency::total    166023200                       # number of ReadReq miss cycles
system.cpu.icache.ReadReq_accesses::.cpu.inst       262873                       # number of ReadReq accesses(hits+misses)
system.cpu.icache.ReadReq_accesses::total       262873                       # number of ReadReq accesses(hits+misses)
system.cpu.icache.ReadReq_miss_rate::.cpu.inst     0.012447                       # miss rate for ReadReq accesses
system.cpu.icache.ReadReq_miss_rate::total     0.012447                       # miss rate for ReadReq accesses
system.cpu.icache.ReadReq_avg_miss_latency::.cpu.inst 50740.586797                       # average ReadReq miss latency
system.cpu.icache.ReadReq_avg_miss_latency::total 50740.586797                       # average ReadReq miss latency
system.cpu.icache.ReadReq_mshr_hits::.cpu.inst          686                       # number of ReadReq MSHR hits
system.cpu.icache.ReadReq_mshr_hits::total          686                       # number of ReadReq MSHR hits
system.cpu.icache.ReadReq_mshr_misses::.cpu.inst         2586                       # number of ReadReq MSHR misses
system.cpu.icache.ReadReq_mshr_misses::total         2586                       # number of ReadReq MSHR misses
system.cpu.icache.ReadReq_mshr_miss_latency::.cpu.inst    132443600                       # number of ReadReq MSHR miss cycles
system.cpu.icache.ReadReq_mshr_miss_latency::total    132443600                       # number of ReadReq MSHR miss cycles
system.cpu.icache.ReadReq_mshr_miss_rate::.cpu.inst     0.009837                       # mshr miss rate for ReadReq accesses
system.cpu.icache.ReadReq_mshr_miss_rate::total     0.009837                       # mshr miss rate for ReadReq accesses
system.cpu.icache.ReadReq_avg_mshr_miss_latency::.cpu.inst 51215.622583                       # average ReadReq mshr miss latency
system.cpu.icache.ReadReq_avg_mshr_miss_latency::total 51215.622583                       # average ReadReq mshr miss latency
system.cpu.icache.prefetcher.pwrStateResidencyTicks::UNDEFINED   1122238000                       # Cumulative time (in ticks) in various power states
system.cpu.icache.tags.pwrStateResidencyTicks::UNDEFINED   1122238000                       # Cumulative time (in ticks) in various power states
system.cpu.icache.tags.tagsinuse           253.547228                       # Cycle average of tags in use
system.cpu.icache.tags.total_refs              215647                       # Total number of references to valid blocks.
system.cpu.icache.tags.sampled_refs              2330                       # Sample count of references to valid blocks.
system.cpu.icache.tags.avg_refs             92.552361                       # Average number of references to valid blocks.
system.cpu.icache.tags.warmup_cycle             66400                       # Cycle when the warmup percentage was hit.
system.cpu.icache.tags.occ_blocks::.cpu.inst   253.547228                       # Average occupied blocks per requestor
system.cpu.icache.tags.occ_percent::.cpu.inst     0.990419                       # Average percentage of cache occupancy
system.cpu.icache.tags.occ_percent::total     0.990419                       # Average percentage of cache occupancy
system.cpu.icache.tags.occ_task_id_blocks::1024          256                       # Occupied blocks per task id
system.cpu.icache.tags.age_task_id_blocks_1024::0           73                       # Occupied blocks per task id
system.cpu.icache.tags.age_task_id_blocks_1024::1          126                       # Occupied blocks per task id
system.cpu.icache.tags.age_task_id_blocks_1024::2           53                       # Occupied blocks per task id
system.cpu.icache.tags.age_task_id_blocks_1024::3            4                       # Occupied blocks per task id
system.cpu.icache.tags.occ_task_id_percent::1024            1                       # Percentage of cache occupancy per task id
system.cpu.icache.tags.tag_accesses            528332                       # Number of tag accesses
system.cpu.icache.tags.data_accesses           528332                       # Number of data accesses
system.cpu.dtb.walker.pwrStateResidencyTicks::UNDEFINED   1122238000                       # Cumulative time (in ticks) in various power states
system.cpu.interrupts.clk_domain.clock           6400                       # Clock period in ticks
system.cpu.itb.walker.pwrStateResidencyTicks::UNDEFINED   1122238000                       # Cumulative time (in ticks) in various power states
system.cpu.dcache.pwrStateResidencyTicks::UNDEFINED   1122238000                       # Cumulative time (in ticks) in various power states
system.cpu.dcache.demand_hits::.cpu.data       691625                       # number of demand (read+write) hits
system.cpu.dcache.demand_hits::total           691625                       # number of demand (read+write) hits
system.cpu.dcache.overall_hits::.cpu.data       691625                       # number of overall hits
system.cpu.dcache.overall_hits::total          691625                       # number of overall hits
system.cpu.dcache.demand_misses::.cpu.data        34116                       # number of demand (read+write) misses
system.cpu.dcache.demand_misses::total          34116                       # number of demand (read+write) misses
system.cpu.dcache.overall_misses::.cpu.data        34116                       # number of overall misses
system.cpu.dcache.overall_misses::total         34116                       # number of overall misses
system.cpu.dcache.demand_miss_latency::.cpu.data   1655477198                       # number of demand (read+write) miss cycles
system.cpu.dcache.demand_miss_latency::total   1655477198                       # number of demand (read+write) miss cycles
system.cpu.dcache.overall_miss_latency::.cpu.data   1655477198                       # number of overall miss cycles
system.cpu.dcache.overall_miss_latency::total   1655477198                       # number of overall miss cycles
system.cpu.dcache.demand_accesses::.cpu.data       725741                       # number of demand (read+write) accesses
system.cpu.dcache.demand_accesses::total       725741                       # number of demand (read+write) accesses
system.cpu.dcache.overall_accesses::.cpu.data       725741                       # number of overall (read+write) accesses
system.cpu.dcache.overall_accesses::total       725741                       # number of overall (read+write) accesses
system.cpu.dcache.demand_miss_rate::.cpu.data     0.047009                       # miss rate for demand accesses
system.cpu.dcache.demand_miss_rate::total     0.047009                       # miss rate for demand accesses
system.cpu.dcache.overall_miss_rate::.cpu.data     0.047009                       # miss rate for overall accesses
system.cpu.dcache.overall_miss_rate::total     0.047009                       # miss rate for overall accesses
system.cpu.dcache.demand_avg_miss_latency::.cpu.data 48524.950111                       # average overall miss latency
system.cpu.dcache.demand_avg_miss_latency::total 48524.950111                       # average overall miss latency
system.cpu.dcache.overall_avg_miss_latency::.cpu.data 48524.950111                       # average overall miss latency
system.cpu.dcache.overall_avg_miss_latency::total 48524.950111                       # average overall miss latency
system.cpu.dcache.blocked_cycles::no_mshrs        27936                       # number of cycles access was blocked
system.cpu.dcache.blocked_cycles::no_targets          382                       # number of cycles access was blocked
system.cpu.dcache.blocked::no_mshrs               737                       # number of cycles access was blocked
system.cpu.dcache.blocked::no_targets               3                       # number of cycles access was blocked
system.cpu.dcache.avg_blocked_cycles::no_mshrs    37.905020                       # average number of cycles each access was blocked
system.cpu.dcache.avg_blocked_cycles::no_targets   127.333333                       # average number of cycles each access was blocked
system.cpu.dcache.unused_prefetches              1757                       # number of HardPF blocks evicted w/o reference
system.cpu.dcache.writebacks::.writebacks         2807                       # number of writebacks
system.cpu.dcache.writebacks::total              2807                       # number of writebacks
system.cpu.dcache.demand_mshr_hits::.cpu.data        21684                       # number of demand (read+write) MSHR hits
system.cpu.dcache.demand_mshr_hits::total        21684                       # number of demand (read+write) MSHR hits
system.cpu.dcache.overall_mshr_hits::.cpu.data        21684                       # number of overall MSHR hits
system.cpu.dcache.overall_mshr_hits::total        21684                       # number of overall MSHR hits
system.cpu.dcache.demand_mshr_misses::.cpu.data        12432                       # number of demand (read+write) MSHR misses
system.cpu.dcache.demand_mshr_misses::total        12432                       # number of demand (read+write) MSHR misses
system.cpu.dcache.overall_mshr_misses::.cpu.data        12432                       # number of overall MSHR misses
system.cpu.dcache.overall_mshr_misses::.cpu.dcache.prefetcher         4480                       # number of overall MSHR misses
system.cpu.dcache.overall_mshr_misses::total        16912                       # number of overall MSHR misses
system.cpu.dcache.demand_mshr_miss_latency::.cpu.data    572295198                       # number of demand (read+write) MSHR miss cycles
system.cpu.dcache.demand_mshr_miss_latency::total    572295198                       # number of demand (read+write) MSHR miss cycles
system.cpu.dcache.overall_mshr_miss_latency::.cpu.data    572295198                       # number of overall MSHR miss cycles
system.cpu.dcache.overall_mshr_miss_latency::.cpu.dcache.prefetcher    257964831                       # number of overall MSHR miss cycles
system.cpu.dcache.overall_mshr_miss_latency::total    830260029                       # number of overall MSHR miss cycles
system.cpu.dcache.demand_mshr_miss_rate::.cpu.data     0.017130                       # mshr miss rate for demand accesses
system.cpu.dcache.demand_mshr_miss_rate::total     0.017130                       # mshr miss rate for demand accesses
system.cpu.dcache.overall_mshr_miss_rate::.cpu.data     0.017130                       # mshr miss rate for overall accesses
system.cpu.dcache.overall_mshr_miss_rate::.cpu.dcache.prefetcher          inf                       # mshr miss rate for overall accesses
system.cpu.dcache.overall_mshr_miss_rate::total     0.023303                       # mshr miss rate for overall accesses
system.cpu.dcache.demand_avg_mshr_miss_latency::.cpu.data 46034.041023                       # average overall mshr miss latency
system.cpu.dcache.demand_avg_mshr_miss_latency::total 46034.041023                       # average overall mshr miss latency
system.cpu.dcache.overall_avg_mshr_miss_latency::.cpu.data 46034.041023                       # average overall mshr miss latency
system.cpu.dcache.overall_avg_mshr_miss_latency::.cpu.dcache.prefetcher 57581.435491                       # average overall mshr miss latency
system.cpu.dcache.overall_avg_mshr_miss_latency::total 49092.953465                       # average overall mshr miss latency
system.cpu.dcache.replacements                  15888                       # number of replacements
system.cpu.dcache.ReadReq_hits::.cpu.data       513297                       # number of ReadReq hits
system.cpu.dcache.ReadReq_hits::total          513297                       # number of ReadReq hits
system.cpu.dcache.ReadReq_misses::.cpu.data        31908                       # number of ReadReq misses
system.cpu.dcache.ReadReq_misses::total         31908                       # number of ReadReq misses
system.cpu.dcache.ReadReq_miss_latency::.cpu.data   1544926000                       # number of ReadReq miss cycles
system.cpu.dcache.ReadReq_miss_latency::total   1544926000                       # number of ReadReq miss cycles
system.cpu.dcache.ReadReq_accesses::.cpu.data       545205                       # number of ReadReq accesses(hits+misses)
system.cpu.dcache.ReadReq_accesses::total       545205                       # number of ReadReq accesses(hits+misses)
system.cpu.dcache.ReadReq_miss_rate::.cpu.data     0.058525                       # miss rate for ReadReq accesses
system.cpu.dcache.ReadReq_miss_rate::total     0.058525                       # miss rate for ReadReq accesses
system.cpu.dcache.ReadReq_avg_miss_latency::.cpu.data 48418.139651                       # average ReadReq miss latency
system.cpu.dcache.ReadReq_avg_miss_latency::total 48418.139651                       # average ReadReq miss latency
system.cpu.dcache.ReadReq_mshr_hits::.cpu.data        21651                       # number of ReadReq MSHR hits
system.cpu.dcache.ReadReq_mshr_hits::total        21651                       # number of ReadReq MSHR hits
system.cpu.dcache.ReadReq_mshr_misses::.cpu.data        10257                       # number of ReadReq MSHR misses
system.cpu.dcache.ReadReq_mshr_misses::total        10257                       # number of ReadReq MSHR misses
system.cpu.dcache.ReadReq_mshr_miss_latency::.cpu.data    464618800                       # number of ReadReq MSHR miss cycles
system.cpu.dcache.ReadReq_mshr_miss_latency::total    464618800                       # number of ReadReq MSHR miss cycles
system.cpu.dcache.ReadReq_mshr_miss_rate::.cpu.data     0.018813                       # mshr miss rate for ReadReq accesses
system.cpu.dcache.ReadReq_mshr_miss_rate::total     0.018813                       # mshr miss rate for ReadReq accesses
system.cpu.dcache.ReadReq_avg_mshr_miss_latency::.cpu.data 45297.728381                       # average ReadReq mshr miss latency
system.cpu.dcache.ReadReq_avg_mshr_miss_latency::total 45297.728381                       # average ReadReq mshr miss latency
system.cpu.dcache.WriteReq_hits::.cpu.data       178328                       # number of WriteReq hits
system.cpu.dcache.WriteReq_hits::total         178328                       # number of WriteReq hits
system.cpu.dcache.WriteReq_misses::.cpu.data         2208                       # number of WriteReq misses
system.cpu.dcache.WriteReq_misses::total         2208                       # number of WriteReq misses
system.cpu.dcache.WriteReq_miss_latency::.cpu.data    110551198                       # number of WriteReq miss cycles
system.cpu.dcache.WriteReq_miss_latency::total    110551198                       # number of WriteReq miss cycles
system.cpu.dcache.WriteReq_accesses::.cpu.data       180536                       # number of WriteReq accesses(hits+misses)
system.cpu.dcache.WriteReq_accesses::total       180536                       # number of WriteReq accesses(hits+misses)
system.cpu.dcache.WriteReq_miss_rate::.cpu.data     0.012230                       # miss rate for WriteReq accesses
system.cpu.dcache.WriteReq_miss_rate::total     0.012230                       # miss rate for WriteReq accesses
system.cpu.dcache.WriteReq_avg_miss_latency::.cpu.data 50068.477355                       # average WriteReq miss latency
system.cpu.dcache.WriteReq_avg_miss_latency::total 50068.477355                       # average WriteReq miss latency
system.cpu.dcache.WriteReq_mshr_hits::.cpu.data           33                       # number of WriteReq MSHR hits
system.cpu.dcache.WriteReq_mshr_hits::total           33                       # number of WriteReq MSHR hits
system.cpu.dcache.WriteReq_mshr_misses::.cpu.data         2175                       # number of WriteReq MSHR misses
system.cpu.dcache.WriteReq_mshr_misses::total         2175                       # number of WriteReq MSHR misses
system.cpu.dcache.WriteReq_mshr_miss_latency::.cpu.data    107676398                       # number of WriteReq MSHR miss cycles
[...]
system.l2cache.overall_mshr_miss_rate::.cpu.data     0.466019                       # mshr miss rate for overall accesses
system.l2cache.overall_mshr_miss_rate::.cpu.dcache.prefetcher     0.462687                       # mshr miss rate for overall accesses
system.l2cache.overall_mshr_miss_rate::.l2cache.prefetcher          inf                       # mshr miss rate for overall accesses
system.l2cache.overall_mshr_miss_rate::total     0.469843                       # mshr miss rate for overall accesses
system.l2cache.demand_avg_mshr_miss_latency::.cpu.inst 58845.208845                       # average overall mshr miss latency
system.l2cache.demand_avg_mshr_miss_latency::.cpu.data 59166.666667                       # average overall mshr miss latency
system.l2cache.demand_avg_mshr_miss_latency::.cpu.dcache.prefetcher 64489.322581                       # average overall mshr miss latency
system.l2cache.demand_avg_mshr_miss_latency::total 59429.772787                       # average overall mshr miss latency
system.l2cache.overall_avg_mshr_miss_latency::.cpu.inst 58845.208845                       # average overall mshr miss latency
system.l2cache.overall_avg_mshr_miss_latency::.cpu.data 59166.666667                       # average overall mshr miss latency
system.l2cache.overall_avg_mshr_miss_latency::.cpu.dcache.prefetcher 64489.322581                       # average overall mshr miss latency
system.l2cache.overall_avg_mshr_miss_latency::.l2cache.prefetcher 58798.772727                       # average overall mshr miss latency
system.l2cache.overall_avg_mshr_miss_latency::total 59411.952503                       # average overall mshr miss latency
system.l2cache.replacements                       789                       # number of replacements
system.l2cache.WritebackDirty_hits::.writebacks          487                       # number of WritebackDirty hits
system.l2cache.WritebackDirty_hits::total          487                       # number of WritebackDirty hits
system.l2cache.WritebackDirty_accesses::.writebacks          487                       # number of WritebackDirty accesses(hits+misses)
system.l2cache.WritebackDirty_accesses::total          487                       # number of WritebackDirty accesses(hits+misses)
system.l2cache.CleanEvict_mshr_misses::.writebacks           23                       # number of CleanEvict MSHR misses
system.l2cache.CleanEvict_mshr_misses::total           23                       # number of CleanEvict MSHR misses
system.l2cache.CleanEvict_mshr_miss_rate::.writebacks          inf                       # mshr miss rate for CleanEvict accesses
system.l2cache.CleanEvict_mshr_miss_rate::total          inf                       # mshr miss rate for CleanEvict accesses
system.l2cache.HardPFReq_mshr_misses::.l2cache.prefetcher           22                       # number of HardPFReq MSHR misses
system.l2cache.HardPFReq_mshr_misses::total           22                       # number of HardPFReq MSHR misses
system.l2cache.HardPFReq_mshr_miss_latency::.l2cache.prefetcher      1293573                       # number of HardPFReq MSHR miss cycles
system.l2cache.HardPFReq_mshr_miss_latency::total      1293573                       # number of HardPFReq MSHR miss cycles
system.l2cache.HardPFReq_mshr_miss_rate::.l2cache.prefetcher          inf                       # mshr miss rate for HardPFReq accesses
system.l2cache.HardPFReq_mshr_miss_rate::total          inf                       # mshr miss rate for HardPFReq accesses
system.l2cache.HardPFReq_avg_mshr_miss_latency::.l2cache.prefetcher 58798.772727                       # average HardPFReq mshr miss latency
system.l2cache.HardPFReq_avg_mshr_miss_latency::total 58798.772727                       # average HardPFReq mshr miss latency
system.l2cache.UpgradeReq_hits::.cpu.data            1                       # number of UpgradeReq hits
system.l2cache.UpgradeReq_hits::total               1                       # number of UpgradeReq hits
system.l2cache.UpgradeReq_accesses::.cpu.data            1                       # number of UpgradeReq accesses(hits+misses)
system.l2cache.UpgradeReq_accesses::total            1                       # number of UpgradeReq accesses(hits+misses)
system.l2cache.ReadExReq_hits::.cpu.data           62                       # number of ReadExReq hits
system.l2cache.ReadExReq_hits::total               62                       # number of ReadExReq hits
system.l2cache.ReadExReq_misses::.cpu.data          105                       # number of ReadExReq misses
system.l2cache.ReadExReq_misses::total            105                       # number of ReadExReq misses
system.l2cache.ReadExReq_miss_latency::.cpu.data      7177600                       # number of ReadExReq miss cycles
system.l2cache.ReadExReq_miss_latency::total      7177600                       # number of ReadExReq miss cycles
system.l2cache.ReadExReq_accesses::.cpu.data          167                       # number of ReadExReq accesses(hits+misses)
system.l2cache.ReadExReq_accesses::total          167                       # number of ReadExReq accesses(hits+misses)
system.l2cache.ReadExReq_miss_rate::.cpu.data     0.628743                       # miss rate for ReadExReq accesses
system.l2cache.ReadExReq_miss_rate::total     0.628743                       # miss rate for ReadExReq accesses
system.l2cache.ReadExReq_avg_miss_latency::.cpu.data 68358.095238                       # average ReadExReq miss latency
system.l2cache.ReadExReq_avg_miss_latency::total 68358.095238                       # average ReadExReq miss latency
system.l2cache.ReadExReq_mshr_misses::.cpu.data          105                       # number of ReadExReq MSHR misses
system.l2cache.ReadExReq_mshr_misses::total          105                       # number of ReadExReq MSHR misses
system.l2cache.ReadExReq_mshr_miss_latency::.cpu.data      6337600                       # number of ReadExReq MSHR miss cycles
system.l2cache.ReadExReq_mshr_miss_latency::total      6337600                       # number of ReadExReq MSHR miss cycles
system.l2cache.ReadExReq_mshr_miss_rate::.cpu.data     0.628743                       # mshr miss rate for ReadExReq accesses
system.l2cache.ReadExReq_mshr_miss_rate::total     0.628743                       # mshr miss rate for ReadExReq accesses
system.l2cache.ReadExReq_avg_mshr_miss_latency::.cpu.data 60358.095238                       # average ReadExReq mshr miss latency
system.l2cache.ReadExReq_avg_mshr_miss_latency::total 60358.095238                       # average ReadExReq mshr miss latency
system.l2cache.ReadSharedReq_hits::.cpu.inst          499                       # number of ReadSharedReq hits
system.l2cache.ReadSharedReq_hits::.cpu.data          267                       # number of ReadSharedReq hits
system.l2cache.ReadSharedReq_hits::.cpu.dcache.prefetcher           72                       # number of ReadSharedReq hits
system.l2cache.ReadSharedReq_hits::total          838                       # number of ReadSharedReq hits
system.l2cache.ReadSharedReq_misses::.cpu.inst          407                       # number of ReadSharedReq misses
system.l2cache.ReadSharedReq_misses::.cpu.data          184                       # number of ReadSharedReq misses
system.l2cache.ReadSharedReq_misses::.cpu.dcache.prefetcher           62                       # number of ReadSharedReq misses
system.l2cache.ReadSharedReq_misses::total          653                       # number of ReadSharedReq misses
system.l2cache.ReadSharedReq_miss_latency::.cpu.inst     27206000                       # number of ReadSharedReq miss cycles
system.l2cache.ReadSharedReq_miss_latency::.cpu.data     12222800                       # number of ReadSharedReq miss cycles
system.l2cache.ReadSharedReq_miss_latency::.cpu.dcache.prefetcher      4494338                       # number of ReadSharedReq miss cycles
system.l2cache.ReadSharedReq_miss_latency::total     43923138                       # number of ReadSharedReq miss cycles
system.l2cache.ReadSharedReq_accesses::.cpu.inst          906                       # number of ReadSharedReq accesses(hits+misses)
system.l2cache.ReadSharedReq_accesses::.cpu.data          451                       # number of ReadSharedReq accesses(hits+misses)
system.l2cache.ReadSharedReq_accesses::.cpu.dcache.prefetcher          134                       # number of ReadSharedReq accesses(hits+misses)
system.l2cache.ReadSharedReq_accesses::total         1491                       # number of ReadSharedReq accesses(hits+misses)
system.l2cache.ReadSharedReq_miss_rate::.cpu.inst     0.449227                       # miss rate for ReadSharedReq accesses
system.l2cache.ReadSharedReq_miss_rate::.cpu.data     0.407982                       # miss rate for ReadSharedReq accesses
system.l2cache.ReadSharedReq_miss_rate::.cpu.dcache.prefetcher     0.462687                       # miss rate for ReadSharedReq accesses
system.l2cache.ReadSharedReq_miss_rate::total     0.437961                       # miss rate for ReadSharedReq accesses
system.l2cache.ReadSharedReq_avg_miss_latency::.cpu.inst 66845.208845                       # average ReadSharedReq miss latency
system.l2cache.ReadSharedReq_avg_miss_latency::.cpu.data 66428.260870                       # average ReadSharedReq miss latency
system.l2cache.ReadSharedReq_avg_miss_latency::.cpu.dcache.prefetcher 72489.322581                       # average ReadSharedReq miss latency
system.l2cache.ReadSharedReq_avg_miss_latency::total 67263.611026                       # average ReadSharedReq miss latency
system.l2cache.ReadSharedReq_mshr_hits::.cpu.data            1                       # number of ReadSharedReq MSHR hits
system.l2cache.ReadSharedReq_mshr_hits::total            1                       # number of ReadSharedReq MSHR hits
system.l2cache.ReadSharedReq_mshr_misses::.cpu.inst          407                       # number of ReadSharedReq MSHR misses
system.l2cache.ReadSharedReq_mshr_misses::.cpu.data          183                       # number of ReadSharedReq MSHR misses
system.l2cache.ReadSharedReq_mshr_misses::.cpu.dcache.prefetcher           62                       # number of ReadSharedReq MSHR misses
system.l2cache.ReadSharedReq_mshr_misses::total          652                       # number of ReadSharedReq MSHR misses
system.l2cache.ReadSharedReq_mshr_miss_latency::.cpu.inst     23950000                       # number of ReadSharedReq MSHR miss cycles
system.l2cache.ReadSharedReq_mshr_miss_latency::.cpu.data     10702400                       # number of ReadSharedReq MSHR miss cycles
system.l2cache.ReadSharedReq_mshr_miss_latency::.cpu.dcache.prefetcher      3998338                       # number of ReadSharedReq MSHR miss cycles
system.l2cache.ReadSharedReq_mshr_miss_latency::total     38650738                       # number of ReadSharedReq MSHR miss cycles
system.l2cache.ReadSharedReq_mshr_miss_rate::.cpu.inst     0.449227                       # mshr miss rate for ReadSharedReq accesses
system.l2cache.ReadSharedReq_mshr_miss_rate::.cpu.data     0.405765                       # mshr miss rate for ReadSharedReq accesses
system.l2cache.ReadSharedReq_mshr_miss_rate::.cpu.dcache.prefetcher     0.462687                       # mshr miss rate for ReadSharedReq accesses
system.l2cache.ReadSharedReq_mshr_miss_rate::total     0.437290                       # mshr miss rate for ReadSharedReq accesses
system.l2cache.ReadSharedReq_avg_mshr_miss_latency::.cpu.inst 58845.208845                       # average ReadSharedReq mshr miss latency
system.l2cache.ReadSharedReq_avg_mshr_miss_latency::.cpu.data 58483.060109                       # average ReadSharedReq mshr miss latency
system.l2cache.ReadSharedReq_avg_mshr_miss_latency::.cpu.dcache.prefetcher 64489.322581                       # average ReadSharedReq mshr miss latency
system.l2cache.ReadSharedReq_avg_mshr_miss_latency::total 59280.273006                       # average ReadSharedReq mshr miss latency
system.l2cache.prefetcher.pwrStateResidencyTicks::UNDEFINED    668289200                       # Cumulative time (in ticks) in various power states
system.l2cache.tags.pwrStateResidencyTicks::UNDEFINED    668289200                       # Cumulative time (in ticks) in various power states
system.l2cache.tags.tagsinuse                    4096                       # Cycle average of tags in use
system.l2cache.tags.total_refs                1203833                       # Total number of references to valid blocks.
system.l2cache.tags.sampled_refs                 4885                       # Sample count of references to valid blocks.
system.l2cache.tags.avg_refs               246.434596                       # Average number of references to valid blocks.
system.l2cache.tags.warmup_cycle                    0                       # Cycle when the warmup percentage was hit.
system.l2cache.tags.occ_blocks::.writebacks    45.700124                       # Average occupied blocks per requestor
system.l2cache.tags.occ_blocks::.cpu.inst  1046.030406                       # Average occupied blocks per requestor
system.l2cache.tags.occ_blocks::.cpu.data  1795.990976                       # Average occupied blocks per requestor
system.l2cache.tags.occ_blocks::.cpu.dcache.prefetcher   942.527911                       # Average occupied blocks per requestor
system.l2cache.tags.occ_blocks::.l2cache.prefetcher   265.750583                       # Average occupied blocks per requestor
system.l2cache.tags.occ_percent::.writebacks     0.011157                       # Average percentage of cache occupancy
system.l2cache.tags.occ_percent::.cpu.inst     0.255379                       # Average percentage of cache occupancy
system.l2cache.tags.occ_percent::.cpu.data     0.438474                       # Average percentage of cache occupancy
system.l2cache.tags.occ_percent::.cpu.dcache.prefetcher     0.230109                       # Average percentage of cache occupancy
system.l2cache.tags.occ_percent::.l2cache.prefetcher     0.064881                       # Average percentage of cache occupancy
system.l2cache.tags.occ_percent::total              1                       # Average percentage of cache occupancy
system.l2cache.tags.occ_task_id_blocks::1022         1133                       # Occupied blocks per task id
system.l2cache.tags.occ_task_id_blocks::1024         2963                       # Occupied blocks per task id
system.l2cache.tags.age_task_id_blocks_1022::0           12                       # Occupied blocks per task id
system.l2cache.tags.age_task_id_blocks_1022::1            4                       # Occupied blocks per task id
system.l2cache.tags.age_task_id_blocks_1022::2           70                       # Occupied blocks per task id
system.l2cache.tags.age_task_id_blocks_1022::4         1047                       # Occupied blocks per task id
system.l2cache.tags.age_task_id_blocks_1024::0          172                       # Occupied blocks per task id
system.l2cache.tags.age_task_id_blocks_1024::1           38                       # Occupied blocks per task id
system.l2cache.tags.age_task_id_blocks_1024::2          493                       # Occupied blocks per task id
system.l2cache.tags.age_task_id_blocks_1024::4         2260                       # Occupied blocks per task id
system.l2cache.tags.occ_task_id_percent::1022     0.276611                       # Percentage of cache occupancy per task id
system.l2cache.tags.occ_task_id_percent::1024     0.723389                       # Percentage of cache occupancy per task id
system.l2cache.tags.tag_accesses                27277                       # Number of tag accesses
system.l2cache.tags.data_accesses               27277                       # Number of data accesses
system.mem_ctrl.pwrStateResidencyTicks::UNDEFINED    668289200                       # Cumulative time (in ticks) in various power states
system.mem_ctrl.bytes_read::.cpu.inst           26048                       # Number of bytes read from this memory
system.mem_ctrl.bytes_read::.cpu.data           18432                       # Number of bytes read from this memory
system.mem_ctrl.bytes_read::.cpu.dcache.prefetcher         3968                       # Number of bytes read from this memory
system.mem_ctrl.bytes_read::.l2cache.prefetcher         1408                       # Number of bytes read from this memory
system.mem_ctrl.bytes_read::total               49856                       # Number of bytes read from this memory
system.mem_ctrl.bytes_inst_read::.cpu.inst        26048                       # Number of instructions bytes read from this memory
system.mem_ctrl.bytes_inst_read::total          26048                       # Number of instructions bytes read from this memory
system.mem_ctrl.bytes_written::.writebacks         3776                       # Number of bytes written to this memory
system.mem_ctrl.bytes_written::total             3776                       # Number of bytes written to this memory
system.mem_ctrl.num_reads::.cpu.inst              407                       # Number of read requests responded to by this memory
system.mem_ctrl.num_reads::.cpu.data              288                       # Number of read requests responded to by this memory
system.mem_ctrl.num_reads::.cpu.dcache.prefetcher           62                       # Number of read requests responded to by this memory
system.mem_ctrl.num_reads::.l2cache.prefetcher           22                       # Number of read requests responded to by this memory
system.mem_ctrl.num_reads::total                  779                       # Number of read requests responded to by this memory
system.mem_ctrl.num_writes::.writebacks            59                       # Number of write requests responded to by this memory
system.mem_ctrl.num_writes::total                  59                       # Number of write requests responded to by this memory
system.mem_ctrl.bw_read::.cpu.inst           38977137                       # Total read bandwidth from this memory (bytes/s)
system.mem_ctrl.bw_read::.cpu.data           27580874                       # Total read bandwidth from this memory (bytes/s)
system.mem_ctrl.bw_read::.cpu.dcache.prefetcher      5937549                       # Total read bandwidth from this memory (bytes/s)
system.mem_ctrl.bw_read::.l2cache.prefetcher      2106872                       # Total read bandwidth from this memory (bytes/s)
system.mem_ctrl.bw_read::total               74602433                       # Total read bandwidth from this memory (bytes/s)
system.mem_ctrl.bw_inst_read::.cpu.inst      38977137                       # Instruction read bandwidth from this memory (bytes/s)
system.mem_ctrl.bw_inst_read::total          38977137                       # Instruction read bandwidth from this memory (bytes/s)
system.mem_ctrl.bw_write::.writebacks         5650248                       # Write bandwidth from this memory (bytes/s)
system.mem_ctrl.bw_write::total               5650248                       # Write bandwidth from this memory (bytes/s)
system.mem_ctrl.bw_total::.writebacks         5650248                       # Total bandwidth to/from this memory (bytes/s)
system.mem_ctrl.bw_total::.cpu.inst          38977137                       # Total bandwidth to/from this memory (bytes/s)
system.mem_ctrl.bw_total::.cpu.data          27580874                       # Total bandwidth to/from this memory (bytes/s)
system.mem_ctrl.bw_total::.cpu.dcache.prefetcher      5937549                       # Total bandwidth to/from this memory (bytes/s)
system.mem_ctrl.bw_total::.l2cache.prefetcher      2106872                       # Total bandwidth to/from this memory (bytes/s)
system.mem_ctrl.bw_total::total              80252681                       # Total bandwidth to/from this memory (bytes/s)

---------- End Simulation Statistics   ----------
