
---------- Begin Simulation Statistics ----------
final_tick                                 3631900000                       # Number of ticks from beginning of simulation (restored from checkpoints and never reset)
host_inst_rate                                 187258                       # Simulator instruction rate (inst/s)
host_mem_usage                                4407848                       # Number of bytes of host memory used
host_op_rate                                   365720                       # Simulator op (including micro ops) rate (op/s)
host_seconds                                    50.53                       # Real time elapsed on the host
host_tick_rate                               71871782                       # Simulator tick rate (ticks/s)
sim_freq                                 1000000000000                       # Frequency of simulated ticks
sim_insts                                     9462686                       # Number of instructions simulated
sim_ops                                      18480939                       # Number of ops (including micro ops) simulated
sim_seconds                                  0.003632                       # Number of seconds simulated
sim_ticks                                  3631900000                       # Number of ticks simulated
system.cpu.branchPred.BTBCorrect                    0                       # Number of correct BTB predictions (this stat may not work properly.
system.cpu.branchPred.BTBHitPct              0.000000                       # BTB Hit Percentage
system.cpu.branchPred.BTBHits                       0                       # Number of BTB hits
system.cpu.branchPred.BTBLookups              1837878                       # Number of BTB lookups
system.cpu.branchPred.RASInCorrect                  8                       # Number of incorrect RAS predictions.
system.cpu.branchPred.condIncorrect             90635                       # Number of conditional branches incorrect
system.cpu.branchPred.condPredicted           1853673                       # Number of conditional branches predicted
system.cpu.branchPred.indirectHits             860651                       # Number of indirect target hits.
system.cpu.branchPred.indirectLookups         1837878                       # Number of indirect predictor lookups.
system.cpu.branchPred.indirectMisses           977227                       # Number of indirect misses.
system.cpu.branchPred.lookups                 2189046                       # Number of BP lookups
system.cpu.branchPred.usedRAS                  152546                       # Number of times the RAS was used to get a target.
system.cpu.branchPredindirectMispredicted        67784                       # Number of mispredicted indirect branches.
system.cpu.cc_regfile_reads                  10579656                       # number of cc regfile reads
system.cpu.cc_regfile_writes                  6375852                       # number of cc regfile writes
system.cpu.commit.amos                              0                       # Number of atomic instructions committed
system.cpu.commit.branchMispredicts             90743                       # The number of times a branch was mispredicted
system.cpu.commit.branches                    1825533                       # Number of branches committed
system.cpu.commit.bw_lim_events               2947120                       # number cycles where commit BW limit reached
system.cpu.commit.commitNonSpecStalls             750                       # The number of times commit has been forced to stall to communicate backwards
system.cpu.commit.commitSquashedInsts         2087071                       # The number of squashed insts skipped by commit
system.cpu.commit.committedInsts              9462686                       # Number of instructions committed
system.cpu.commit.committedOps               18480939                       # Number of ops (including micro ops) committed
system.cpu.commit.committed_per_cycle::samples      8334960                       # Number of insts commited each cycle
system.cpu.commit.committed_per_cycle::mean     2.217280                       # Number of insts commited each cycle
system.cpu.commit.committed_per_cycle::stdev     1.631413                       # Number of insts commited each cycle
system.cpu.commit.committed_per_cycle::underflows            0      0.00%      0.00% # Number of insts commited each cycle
system.cpu.commit.committed_per_cycle::0      2119021     25.42%     25.42% # Number of insts commited each cycle
system.cpu.commit.committed_per_cycle::1      1078835     12.94%     38.37% # Number of insts commited each cycle
system.cpu.commit.committed_per_cycle::2       956328     11.47%     49.84% # Number of insts commited each cycle
system.cpu.commit.committed_per_cycle::3      1233656     14.80%     64.64% # Number of insts commited each cycle
system.cpu.commit.committed_per_cycle::4      2947120     35.36%    100.00% # Number of insts commited each cycle
system.cpu.commit.committed_per_cycle::overflows            0      0.00%    100.00% # Number of insts commited each cycle
system.cpu.commit.committed_per_cycle::min_value            0                       # Number of insts commited each cycle
system.cpu.commit.committed_per_cycle::max_value            4                       # Number of insts commited each cycle
system.cpu.commit.committed_per_cycle::total      8334960                       # Number of insts commited each cycle
system.cpu.commit.fp_insts                     680050                       # Number of committed floating point instructions.
system.cpu.commit.function_calls               142028                       # Number of function calls committed.
system.cpu.commit.int_insts                  17922304                       # Number of committed integer instructions.
system.cpu.commit.loads                       2349896                       # Number of loads committed
system.cpu.commit.membars                           1                       # Number of memory barriers committed
system.cpu.commit.op_class_0::No_OpClass        88191      0.48%      0.48% # Class of committed instruction
system.cpu.commit.op_class_0::IntAlu         14028599     75.91%     76.39% # Class of committed instruction
system.cpu.commit.op_class_0::IntMult            7736      0.04%     76.43% # Class of committed instruction
system.cpu.commit.op_class_0::IntDiv            37699      0.20%     76.63% # Class of committed instruction
system.cpu.commit.op_class_0::FloatAdd          23014      0.12%     76.76% # Class of committed instruction
system.cpu.commit.op_class_0::FloatCmp              0      0.00%     76.76% # Class of committed instruction
system.cpu.commit.op_class_0::FloatCvt           1216      0.01%     76.76% # Class of committed instruction
system.cpu.commit.op_class_0::FloatMult             0      0.00%     76.76% # Class of committed instruction
system.cpu.commit.op_class_0::FloatMultAcc            0      0.00%     76.76% # Class of committed instruction
system.cpu.commit.op_class_0::FloatDiv              0      0.00%     76.76% # Class of committed instruction
system.cpu.commit.op_class_0::FloatMisc             0      0.00%     76.76% # Class of committed instruction
system.cpu.commit.op_class_0::FloatSqrt             0      0.00%     76.76% # Class of committed instruction
system.cpu.commit.op_class_0::SimdAdd            6226      0.03%     76.80% # Class of committed instruction
system.cpu.commit.op_class_0::SimdAddAcc            0      0.00%     76.80% # Class of committed instruction
system.cpu.commit.op_class_0::SimdAlu          150855      0.82%     77.61% # Class of committed instruction
system.cpu.commit.op_class_0::SimdCmp              14      0.00%     77.61% # Class of committed instruction
system.cpu.commit.op_class_0::SimdCvt          107368      0.58%     78.19% # Class of committed instruction
system.cpu.commit.op_class_0::SimdMisc         202252      1.09%     79.29% # Class of committed instruction
system.cpu.commit.op_class_0::SimdMult              0      0.00%     79.29% # Class of committed instruction
system.cpu.commit.op_class_0::SimdMultAcc            0      0.00%     79.29% # Class of committed instruction
system.cpu.commit.op_class_0::SimdShift          1200      0.01%     79.29% # Class of committed instruction
system.cpu.commit.op_class_0::SimdShiftAcc            0      0.00%     79.29% # Class of committed instruction
system.cpu.commit.op_class_0::SimdDiv               0      0.00%     79.29% # Class of committed instruction
system.cpu.commit.op_class_0::SimdSqrt              0      0.00%     79.29% # Class of committed instruction
system.cpu.commit.op_class_0::SimdFloatAdd            0      0.00%     79.29% # Class of committed instruction
system.cpu.commit.op_class_0::SimdFloatAlu            0      0.00%     79.29% # Class of committed instruction
system.cpu.commit.op_class_0::SimdFloatCmp            0      0.00%     79.29% # Class of committed instruction
system.cpu.commit.op_class_0::SimdFloatCvt            0      0.00%     79.29% # Class of committed instruction
system.cpu.commit.op_class_0::SimdFloatDiv            0      0.00%     79.29% # Class of committed instruction
system.cpu.commit.op_class_0::SimdFloatMisc            0      0.00%     79.29% # Class of committed instruction
system.cpu.commit.op_class_0::SimdFloatMult            0      0.00%     79.29% # Class of committed instruction
system.cpu.commit.op_class_0::SimdFloatMultAcc            0      0.00%     79.29% # Class of committed instruction
system.cpu.commit.op_class_0::SimdFloatSqrt            0      0.00%     79.29% # Class of committed instruction
system.cpu.commit.op_class_0::SimdReduceAdd            0      0.00%     79.29% # Class of committed instruction
system.cpu.commit.op_class_0::SimdReduceAlu            0      0.00%     79.29% # Class of committed instruction
system.cpu.commit.op_class_0::SimdReduceCmp            0      0.00%     79.29% # Class of committed instruction
system.cpu.commit.op_class_0::SimdFloatReduceAdd            0      0.00%     79.29% # Class of committed instruction
system.cpu.commit.op_class_0::SimdFloatReduceCmp            0      0.00%     79.29% # Class of committed instruction
system.cpu.commit.op_class_0::SimdAes               0      0.00%     79.29% # Class of committed instruction
system.cpu.commit.op_class_0::SimdAesMix            0      0.00%     79.29% # Class of committed instruction
system.cpu.commit.op_class_0::SimdSha1Hash            0      0.00%     79.29% # Class of committed instruction
system.cpu.commit.op_class_0::SimdSha1Hash2            0      0.00%     79.29% # Class of committed instruction
system.cpu.commit.op_class_0::SimdSha256Hash            0      0.00%     79.29% # Class of committed instruction
system.cpu.commit.op_class_0::SimdSha256Hash2            0      0.00%     79.29% # Class of committed instruction
system.cpu.commit.op_class_0::SimdShaSigma2            0      0.00%     79.29% # Class of committed instruction
system.cpu.commit.op_class_0::SimdShaSigma3            0      0.00%     79.29% # Class of committed instruction
system.cpu.commit.op_class_0::SimdPredAlu            0      0.00%     79.29% # Class of committed instruction
system.cpu.commit.op_class_0::MemRead         2255466     12.20%     91.50% # Class of committed instruction
system.cpu.commit.op_class_0::MemWrite        1444350      7.82%     99.31% # Class of committed instruction
system.cpu.commit.op_class_0::FloatMemRead        94430      0.51%     99.83% # Class of committed instruction
system.cpu.commit.op_class_0::FloatMemWrite        32323      0.17%    100.00% # Class of committed instruction
system.cpu.commit.op_class_0::IprAccess             0      0.00%    100.00% # Class of committed instruction
system.cpu.commit.op_class_0::InstPrefetch            0      0.00%    100.00% # Class of committed instruction
system.cpu.commit.op_class_0::total          18480939                       # Class of committed instruction
system.cpu.commit.refs                        3826569                       # Number of memory references committed
system.cpu.commit.swp_count                         0                       # Number of s/w prefetches committed
system.cpu.commit.vec_insts                         0                       # Number of committed Vector instructions.
system.cpu.committedInsts                     9462686                       # Number of Instructions Simulated
system.cpu.committedOps                      18480939                       # Number of Ops (including micro ops) Simulated
system.cpu.cpi                               0.959532                       # CPI: Cycles Per Instruction
system.cpu.cpi_total                         0.959532                       # CPI: Total CPI of All Threads
system.cpu.dcache.prefetcher.num_hwpf_issued         9402                       # number of hwpf issued
system.cpu.dcache.prefetcher.pfBufferHit        34676                       # number of redundant prefetches already in prefetch queue
system.cpu.dcache.prefetcher.pfIdentified        51287                       # number of prefetch candidates identified
system.cpu.dcache.prefetcher.pfInCache              0                       # number of redundant prefetches already in cache/mshr dropped
system.cpu.dcache.prefetcher.pfRemovedFull            0                       # number of prefetches dropped due to prefetch queue size
system.cpu.dcache.prefetcher.pfSpanPage          5445                       # number of prefetches that crossed the page
system.cpu.decode.BlockedCycles               1367442                       # Number of cycles decode is blocked
system.cpu.decode.DecodedInsts               21365956                       # Number of instructions handled by decode
system.cpu.decode.IdleCycles                  1671959                       # Number of cycles decode is idle
system.cpu.decode.RunCycles                   5595362                       # Number of cycles decode is running
system.cpu.decode.SquashCycles                  90843                       # Number of cycles decode is squashing
system.cpu.decode.UnblockCycles                183063                       # Number of cycles decode is unblocking
system.cpu.dtb.rdAccesses                     2488124                       # TLB accesses on read requests
system.cpu.dtb.rdMisses                          2073                       # TLB misses on read requests
system.cpu.dtb.wrAccesses                     1573693                       # TLB accesses on write requests
system.cpu.dtb.wrMisses                           167                       # TLB misses on write requests
system.cpu.fetch.Branches                     2189046                       # Number of branches that fetch encountered
system.cpu.fetch.CacheLines                   1476241                       # Number of cache lines fetched
system.cpu.fetch.Cycles                       7092935                       # Number of cycles fetch has run and was not squashing or blocked
system.cpu.fetch.IcacheSquashes                 22772                       # Number of outstanding Icache misses that were squashed
system.cpu.fetch.Insts                       11245842                       # Number of instructions fetch has processed
system.cpu.fetch.MiscStallCycles                  154                       # Number of cycles fetch has spent waiting on interrupts, or bad addresses, or out of MSHRs
system.cpu.fetch.PendingQuiesceStallCycles            6                       # Number of stall cycles due to pending quiesce instructions
system.cpu.fetch.PendingTrapStallCycles           961                       # Number of stall cycles due to pending traps
system.cpu.fetch.SquashCycles                  181686                       # Number of cycles fetch has spent squashing
system.cpu.fetch.branchRate                  0.241091                       # Number of branch fetches per cycle
system.cpu.fetch.icacheStallCycles            1723770                       # Number of cycles fetch is stalled on an Icache miss
system.cpu.fetch.predictedBranches            1013197                       # Number of branches that fetch has predicted taken
system.cpu.fetch.rate                        1.238563                       # Number of inst fetches per cycle
system.cpu.fetch.rateDist::samples            8908669                       # Number of instructions fetched each cycle (Total)
system.cpu.fetch.rateDist::mean              2.457312                       # Number of instructions fetched each cycle (Total)
system.cpu.fetch.rateDist::stdev             1.837545                       # Number of instructions fetched each cycle (Total)
system.cpu.fetch.rateDist::underflows               0      0.00%      0.00% # Number of instructions fetched each cycle (Total)
system.cpu.fetch.rateDist::0                  2878333     32.31%     32.31% # Number of instructions fetched each cycle (Total)
system.cpu.fetch.rateDist::1                   398383      4.47%     36.78% # Number of instructions fetched each cycle (Total)
system.cpu.fetch.rateDist::2                   304390      3.42%     40.20% # Number of instructions fetched each cycle (Total)
system.cpu.fetch.rateDist::3                   426033      4.78%     44.98% # Number of instructions fetched each cycle (Total)
system.cpu.fetch.rateDist::4                  4901530     55.02%    100.00% # Number of instructions fetched each cycle (Total)
system.cpu.fetch.rateDist::overflows                0      0.00%    100.00% # Number of instructions fetched each cycle (Total)
system.cpu.fetch.rateDist::min_value                0                       # Number of instructions fetched each cycle (Total)
system.cpu.fetch.rateDist::max_value                4                       # Number of instructions fetched each cycle (Total)
system.cpu.fetch.rateDist::total              8908669                       # Number of instructions fetched each cycle (Total)
system.cpu.fp_regfile_reads                   1147906                       # number of floating regfile reads
system.cpu.fp_regfile_writes                   596992                       # number of floating regfile writes
system.cpu.fuPool.fu_ticks_busy::IntALU(0)   1008609200                       # Total ticks fu was busy
system.cpu.fuPool.fu_ticks_busy::IntALU(1)   1008609200                       # Total ticks fu was busy
system.cpu.fuPool.fu_ticks_busy::IntALU(2)   1008609200                       # Total ticks fu was busy
system.cpu.fuPool.fu_ticks_busy::IntALU(3)   1008609200                       # Total ticks fu was busy
system.cpu.fuPool.fu_ticks_busy::IntALU(4)   1008609200                       # Total ticks fu was busy
system.cpu.fuPool.fu_ticks_busy::IntALU(5)   1008609200                       # Total ticks fu was busy
system.cpu.fuPool.fu_ticks_busy::IntMultDiv(0)      9884000                       # Total ticks fu was busy
system.cpu.fuPool.fu_ticks_busy::IntMultDiv(1)      9883600                       # Total ticks fu was busy
system.cpu.fuPool.fu_ticks_busy::FP_ALU(0)      2583200                       # Total ticks fu was busy
system.cpu.fuPool.fu_ticks_busy::FP_ALU(1)      2583200                       # Total ticks fu was busy
system.cpu.fuPool.fu_ticks_busy::FP_ALU(2)      2583200                       # Total ticks fu was busy
system.cpu.fuPool.fu_ticks_busy::FP_ALU(3)      2582400                       # Total ticks fu was busy
system.cpu.fuPool.fu_ticks_busy::FP_MultDiv(0)            0                       # Total ticks fu was busy
system.cpu.fuPool.fu_ticks_busy::FP_MultDiv(1)            0                       # Total ticks fu was busy
system.cpu.fuPool.fu_ticks_busy::SIMD_Unit(0)     46215200                       # Total ticks fu was busy
system.cpu.fuPool.fu_ticks_busy::SIMD_Unit(1)     47913200                       # Total ticks fu was busy
system.cpu.fuPool.fu_ticks_busy::SIMD_Unit(2)     47971200                       # Total ticks fu was busy
system.cpu.fuPool.fu_ticks_busy::SIMD_Unit(3)     48061600                       # Total ticks fu was busy
system.cpu.fuPool.fu_ticks_busy::PredALU(0)            0                       # Total ticks fu was busy
system.cpu.fuPool.fu_ticks_busy::RdWrPort(0)    411633200                       # Total ticks fu was busy
system.cpu.fuPool.fu_ticks_busy::RdWrPort(1)    411716800                       # Total ticks fu was busy
system.cpu.fuPool.fu_ticks_busy::RdWrPort(2)    411748400                       # Total ticks fu was busy
system.cpu.fuPool.fu_ticks_busy::RdWrPort(3)    411628400                       # Total ticks fu was busy
system.cpu.fuPool.fu_ticks_busy::IprPort(0)            0                       # Total ticks fu was busy
system.cpu.fuPool.fu_ticks_busy::total     7918642800                       # Total ticks fu was busy
system.cpu.icache.prefetcher.num_hwpf_issued            0                       # number of hwpf issued
system.cpu.icache.prefetcher.pfBufferHit            0                       # number of redundant prefetches already in prefetch queue
system.cpu.icache.prefetcher.pfIdentified            0                       # number of prefetch candidates identified
system.cpu.icache.prefetcher.pfInCache              0                       # number of redundant prefetches already in cache/mshr dropped
system.cpu.icache.prefetcher.pfRemovedFull            0                       # number of prefetches dropped due to prefetch queue size
system.cpu.icache.prefetcher.pfSpanPage             0                       # number of prefetches that crossed the page
system.cpu.idleCycles                          171082                       # Total number of cycles that the CPU has spent unscheduled due to idling
system.cpu.iew.branchMispredicts               107229                       # Number of branch mispredicts detected at execute
system.cpu.iew.exec_branches                  1916723                       # Number of branches executed
system.cpu.iew.exec_nop                             0                       # number of nop insts executed
system.cpu.iew.exec_rate                     2.175370                       # Inst execution rate
system.cpu.iew.exec_refs                      4062301                       # number of memory reference insts executed
system.cpu.iew.exec_stores                    1572497                       # Number of stores executed
system.cpu.iew.exec_swp                             0                       # number of swp insts executed
system.cpu.iew.iewBlockCycles                  962879                       # Number of cycles IEW is blocking
system.cpu.iew.iewDispLoadInsts               2580672                       # Number of dispatched load instructions
system.cpu.iew.iewDispNonSpecInsts              14984                       # Number of dispatched non-speculative instructions
system.cpu.iew.iewDispSquashedInsts               665                       # Number of squashed instructions skipped by dispatch
system.cpu.iew.iewDispStoreInsts              1650496                       # Number of dispatched store instructions
system.cpu.iew.iewDispatchedInsts            20567942                       # Number of instructions dispatched to IQ
system.cpu.iew.iewExecLoadInsts               2489804                       # Number of load instructions executed
system.cpu.iew.iewExecSquashedInsts            158671                       # Number of squashed instructions skipped in execute
system.cpu.iew.iewExecutedInsts              19751814                       # Number of executed instructions
system.cpu.iew.iewIQFullEvents                   3435                       # Number of times the IQ has become full, causing a stall
system.cpu.iew.iewIdleCycles                        0                       # Number of cycles IEW is idle
system.cpu.iew.iewLSQFullEvents                  8480                       # Number of times the LSQ has become full, causing a stall
system.cpu.iew.iewSquashCycles                  90843                       # Number of cycles IEW is squashing
system.cpu.iew.iewUnblockCycles                 14729                       # Number of cycles IEW is unblocking
system.cpu.iew.lsq.thread0.blockedLoads             0                       # Number of blocked loads due to partial load-store forwarding
system.cpu.iew.lsq.thread0.cacheBlocked           584                       # Number of times an access to memory failed due to the cache being blocked
system.cpu.iew.lsq.thread0.forwLoads           189013                       # Number of loads that had data forwarded from stores
system.cpu.iew.lsq.thread0.ignoredResponses          409                       # Number of memory responses ignored because the instruction is squashed
system.cpu.iew.lsq.thread0.invAddrLoads             0                       # Number of loads ignored due to an invalid address
system.cpu.iew.lsq.thread0.invAddrSwpfs             0                       # Number of software prefetches ignored due to an invalid address
system.cpu.iew.lsq.thread0.memOrderViolation          116                       # Number of memory ordering violations
system.cpu.iew.lsq.thread0.rescheduledLoads           98                       # Number of loads that were rescheduled
system.cpu.iew.lsq.thread0.squashedLoads       230774                       # Number of loads squashed
system.cpu.iew.lsq.thread0.squashedStores       173822                       # Number of stores squashed
system.cpu.iew.memOrderViolationEvents            116                       # Number of memory order violations
system.cpu.iew.predictedNotTakenIncorrect        90467                       # Number of branches that were predicted not taken incorrectly
system.cpu.iew.predictedTakenIncorrect          16762                       # Number of branches that were predicted taken incorrectly
system.cpu.iew.wb_consumers                  22926466                       # num instructions consuming a value
system.cpu.iew.wb_count                      19695173                       # cumulative count of insts written-back
system.cpu.iew.wb_fanout                     0.609092                       # average fanout of values written-back
system.cpu.iew.wb_producers                  13964324                       # num instructions producing a value
system.cpu.iew.wb_rate                       2.169131                       # insts written-back per cycle
system.cpu.iew.wb_sent                       19721558                       # cumulative count of insts sent to commit
system.cpu.int_regfile_reads                 29772042                       # number of integer regfile reads
system.cpu.int_regfile_writes                15645525                       # number of integer regfile writes
system.cpu.ipc                               1.042175                       # IPC: Instructions Per Cycle
system.cpu.ipc_total                         1.042175                       # IPC: Total IPC of All Threads
system.cpu.iq.FU_type_0::No_OpClass            113878      0.57%      0.57% # Type of FU issued
system.cpu.iq.FU_type_0::IntAlu              15129139     75.99%     76.56% # Type of FU issued
system.cpu.iq.FU_type_0::IntMult                 7785      0.04%     76.60% # Type of FU issued
system.cpu.iq.FU_type_0::IntDiv                 41634      0.21%     76.81% # Type of FU issued
system.cpu.iq.FU_type_0::FloatAdd               24571      0.12%     76.93% # Type of FU issued
system.cpu.iq.FU_type_0::FloatCmp                   0      0.00%     76.93% # Type of FU issued
system.cpu.iq.FU_type_0::FloatCvt                1259      0.01%     76.94% # Type of FU issued
system.cpu.iq.FU_type_0::FloatMult                  0      0.00%     76.94% # Type of FU issued
system.cpu.iq.FU_type_0::FloatMultAcc               0      0.00%     76.94% # Type of FU issued
system.cpu.iq.FU_type_0::FloatDiv                   0      0.00%     76.94% # Type of FU issued
system.cpu.iq.FU_type_0::FloatMisc                  0      0.00%     76.94% # Type of FU issued
system.cpu.iq.FU_type_0::FloatSqrt                  0      0.00%     76.94% # Type of FU issued
system.cpu.iq.FU_type_0::SimdAdd                 6815      0.03%     76.97% # Type of FU issued
system.cpu.iq.FU_type_0::SimdAddAcc                 0      0.00%     76.97% # Type of FU issued
system.cpu.iq.FU_type_0::SimdAlu               154444      0.78%     77.75% # Type of FU issued
system.cpu.iq.FU_type_0::SimdCmp                   14      0.00%     77.75% # Type of FU issued
system.cpu.iq.FU_type_0::SimdCvt               109035      0.55%     78.29% # Type of FU issued
system.cpu.iq.FU_type_0::SimdMisc              202775      1.02%     79.31% # Type of FU issued
system.cpu.iq.FU_type_0::SimdMult                   0      0.00%     79.31% # Type of FU issued
system.cpu.iq.FU_type_0::SimdMultAcc                0      0.00%     79.31% # Type of FU issued
system.cpu.iq.FU_type_0::SimdShift               2320      0.01%     79.32% # Type of FU issued
system.cpu.iq.FU_type_0::SimdShiftAcc               0      0.00%     79.32% # Type of FU issued
system.cpu.iq.FU_type_0::SimdDiv                    0      0.00%     79.32% # Type of FU issued
system.cpu.iq.FU_type_0::SimdSqrt                   0      0.00%     79.32% # Type of FU issued
system.cpu.iq.FU_type_0::SimdFloatAdd               0      0.00%     79.32% # Type of FU issued
system.cpu.iq.FU_type_0::SimdFloatAlu               0      0.00%     79.32% # Type of FU issued
system.cpu.iq.FU_type_0::SimdFloatCmp               0      0.00%     79.32% # Type of FU issued
system.cpu.iq.FU_type_0::SimdFloatCvt               0      0.00%     79.32% # Type of FU issued
system.cpu.iq.FU_type_0::SimdFloatDiv               0      0.00%     79.32% # Type of FU issued
system.cpu.iq.FU_type_0::SimdFloatMisc              0      0.00%     79.32% # Type of FU issued
system.cpu.iq.FU_type_0::SimdFloatMult              0      0.00%     79.32% # Type of FU issued
system.cpu.iq.FU_type_0::SimdFloatMultAcc            0      0.00%     79.32% # Type of FU issued
system.cpu.iq.FU_type_0::SimdFloatSqrt              0      0.00%     79.32% # Type of FU issued
system.cpu.iq.FU_type_0::SimdReduceAdd              0      0.00%     79.32% # Type of FU issued
system.cpu.iq.FU_type_0::SimdReduceAlu              0      0.00%     79.32% # Type of FU issued
system.cpu.iq.FU_type_0::SimdReduceCmp              0      0.00%     79.32% # Type of FU issued
system.cpu.iq.FU_type_0::SimdFloatReduceAdd            0      0.00%     79.32% # Type of FU issued
system.cpu.iq.FU_type_0::SimdFloatReduceCmp            0      0.00%     79.32% # Type of FU issued
system.cpu.iq.FU_type_0::SimdAes                    0      0.00%     79.32% # Type of FU issued
system.cpu.iq.FU_type_0::SimdAesMix                 0      0.00%     79.32% # Type of FU issued
system.cpu.iq.FU_type_0::SimdSha1Hash               0      0.00%     79.32% # Type of FU issued
system.cpu.iq.FU_type_0::SimdSha1Hash2              0      0.00%     79.32% # Type of FU issued
system.cpu.iq.FU_type_0::SimdSha256Hash             0      0.00%     79.32% # Type of FU issued
system.cpu.iq.FU_type_0::SimdSha256Hash2            0      0.00%     79.32% # Type of FU issued
system.cpu.iq.FU_type_0::SimdShaSigma2              0      0.00%     79.32% # Type of FU issued
system.cpu.iq.FU_type_0::SimdShaSigma3              0      0.00%     79.32% # Type of FU issued
system.cpu.iq.FU_type_0::SimdPredAlu                0      0.00%     79.32% # Type of FU issued
system.cpu.iq.FU_type_0::MemRead              2420560     12.16%     91.48% # Type of FU issued
system.cpu.iq.FU_type_0::MemWrite             1554012      7.80%     99.29% # Type of FU issued
system.cpu.iq.FU_type_0::FloatMemRead          100424      0.50%     99.79% # Type of FU issued
system.cpu.iq.FU_type_0::FloatMemWrite          41823      0.21%    100.00% # Type of FU issued
system.cpu.iq.FU_type_0::IprAccess                  0      0.00%    100.00% # Type of FU issued
system.cpu.iq.FU_type_0::InstPrefetch               0      0.00%    100.00% # Type of FU issued
system.cpu.iq.FU_type_0::total               19910488                       # Type of FU issued
system.cpu.iq.fp_alu_accesses                  704784                       # Number of floating point alu accesses
system.cpu.iq.fp_inst_queue_reads             1410928                       # Number of floating instruction queue reads
system.cpu.iq.fp_inst_queue_wakeup_accesses       699090                       # Number of floating instruction queue wakeup accesses
system.cpu.iq.fp_inst_queue_writes             753354                       # Number of floating instruction queue writes
system.cpu.iq.fu_busy_cnt                           0                       # FU busy when requested
system.cpu.iq.fu_busy_rate                          0                       # FU busy rate (busy events/executed inst)
system.cpu.iq.fu_full::No_OpClass                   0                       # attempts to use FU when none available
system.cpu.iq.fu_full::IntAlu                       0                       # attempts to use FU when none available
system.cpu.iq.fu_full::IntMult                      0                       # attempts to use FU when none available
system.cpu.iq.fu_full::IntDiv                       0                       # attempts to use FU when none available
system.cpu.iq.fu_full::FloatAdd                     0                       # attempts to use FU when none available
system.cpu.iq.fu_full::FloatCmp                     0                       # attempts to use FU when none available
system.cpu.iq.fu_full::FloatCvt                     0                       # attempts to use FU when none available
system.cpu.iq.fu_full::FloatMult                    0                       # attempts to use FU when none available
system.cpu.iq.fu_full::FloatMultAcc                 0                       # attempts to use FU when none available
system.cpu.iq.fu_full::FloatDiv                     0                       # attempts to use FU when none available
system.cpu.iq.fu_full::FloatMisc                    0                       # attempts to use FU when none available
system.cpu.iq.fu_full::FloatSqrt                    0                       # attempts to use FU when none available
system.cpu.iq.fu_full::SimdAdd                      0                       # attempts to use FU when none available
system.cpu.iq.fu_full::SimdAddAcc                   0                       # attempts to use FU when none available
system.cpu.iq.fu_full::SimdAlu                      0                       # attempts to use FU when none available
system.cpu.iq.fu_full::SimdCmp                      0                       # attempts to use FU when none available
system.cpu.iq.fu_full::SimdCvt                      0                       # attempts to use FU when none available
system.cpu.iq.fu_full::SimdMisc                     0                       # attempts to use FU when none available
system.cpu.iq.fu_full::SimdMult                     0                       # attempts to use FU when none available
system.cpu.iq.fu_full::SimdMultAcc                  0                       # attempts to use FU when none available
system.cpu.iq.fu_full::SimdShift                    0                       # attempts to use FU when none available
system.cpu.iq.fu_full::SimdShiftAcc                 0                       # attempts to use FU when none available
system.cpu.iq.fu_full::SimdDiv                      0                       # attempts to use FU when none available
system.cpu.iq.fu_full::SimdSqrt                     0                       # attempts to use FU when none available
system.cpu.iq.fu_full::SimdFloatAdd                 0                       # attempts to use FU when none available
system.cpu.iq.fu_full::SimdFloatAlu                 0                       # attempts to use FU when none available
system.cpu.iq.fu_full::SimdFloatCmp                 0                       # attempts to use FU when none available
system.cpu.iq.fu_full::SimdFloatCvt                 0                       # attempts to use FU when none available
system.cpu.iq.fu_full::SimdFloatDiv                 0                       # attempts to use FU when none available
system.cpu.iq.fu_full::SimdFloatMisc                0                       # attempts to use FU when none available
system.cpu.iq.fu_full::SimdFloatMult                0                       # attempts to use FU when none available
system.cpu.iq.fu_full::SimdFloatMultAcc             0                       # attempts to use FU when none available
system.cpu.iq.fu_full::SimdFloatSqrt                0                       # attempts to use FU when none available
system.cpu.iq.fu_full::SimdReduceAdd                0                       # attempts to use FU when none available
system.cpu.iq.fu_full::SimdReduceAlu                0                       # attempts to use FU when none available
system.cpu.iq.fu_full::SimdReduceCmp                0                       # attempts to use FU when none available
system.cpu.iq.fu_full::SimdFloatReduceAdd            0                       # attempts to use FU when none available
system.cpu.iq.fu_full::SimdFloatReduceCmp            0                       # attempts to use FU when none available
system.cpu.iq.fu_full::SimdAes                      0                       # attempts to use FU when none available
system.cpu.iq.fu_full::SimdAesMix                   0                       # attempts to use FU when none available
system.cpu.iq.fu_full::SimdSha1Hash                 0                       # attempts to use FU when none available
system.cpu.iq.fu_full::SimdSha1Hash2                0                       # attempts to use FU when none available
system.cpu.iq.fu_full::SimdSha256Hash               0                       # attempts to use FU when none available
system.cpu.iq.fu_full::SimdSha256Hash2              0                       # attempts to use FU when none available
system.cpu.iq.fu_full::SimdShaSigma2                0                       # attempts to use FU when none available
system.cpu.iq.fu_full::SimdShaSigma3                0                       # attempts to use FU when none available
system.cpu.iq.fu_full::SimdPredAlu                  0                       # attempts to use FU when none available
system.cpu.iq.fu_full::MemRead                      0                       # attempts to use FU when none available
system.cpu.iq.fu_full::MemWrite                     0                       # attempts to use FU when none available
system.cpu.iq.fu_full::FloatMemRead                 0                       # attempts to use FU when none available
system.cpu.iq.fu_full::FloatMemWrite                0                       # attempts to use FU when none available
system.cpu.iq.fu_full::IprAccess                    0                       # attempts to use FU when none available
system.cpu.iq.fu_full::InstPrefetch                 0                       # attempts to use FU when none available
system.cpu.iq.int_alu_accesses               19091826                       # Number of integer alu accesses
system.cpu.iq.int_inst_queue_reads           47367296                       # Number of integer instruction queue reads
system.cpu.iq.int_inst_queue_wakeup_accesses     18996083                       # Number of integer instruction queue wakeup accesses
system.cpu.iq.int_inst_queue_writes          21901695                       # Number of integer instruction queue writes
system.cpu.iq.iqInstsAdded                   20535437                       # Number of instructions added to the IQ (excludes non-spec)
system.cpu.iq.iqInstsIssued                  19910488                       # Number of instructions issued
system.cpu.iq.iqNonSpecInstsAdded               32505                       # Number of non-speculative instructions added to the IQ
system.cpu.iq.iqSquashedInstsExamined         2086992                       # Number of squashed instructions iterated over during squash; mainly for profiling
system.cpu.iq.iqSquashedInstsIssued             48582                       # Number of squashed instructions issued
system.cpu.iq.iqSquashedNonSpecRemoved          31755                       # Number of squashed non-spec instructions that were removed
system.cpu.iq.iqSquashedOperandsExamined      2608308                       # Number of squashed operands that are examined and possibly removed from graph
system.cpu.iq.issued_per_cycle::samples       8908669                       # Number of insts issued each cycle
system.cpu.iq.issued_per_cycle::mean         2.234957                       # Number of insts issued each cycle
system.cpu.iq.issued_per_cycle::stdev        1.553524                       # Number of insts issued each cycle
system.cpu.iq.issued_per_cycle::underflows            0      0.00%      0.00% # Number of insts issued each cycle
system.cpu.iq.issued_per_cycle::0             2148567     24.12%     24.12% # Number of insts issued each cycle
system.cpu.iq.issued_per_cycle::1              824899      9.26%     33.38% # Number of insts issued each cycle
system.cpu.iq.issued_per_cycle::2             1398992     15.70%     49.08% # Number of insts issued each cycle
system.cpu.iq.issued_per_cycle::3             1857239     20.85%     69.93% # Number of insts issued each cycle
system.cpu.iq.issued_per_cycle::4             2678972     30.07%    100.00% # Number of insts issued each cycle
system.cpu.iq.issued_per_cycle::overflows            0      0.00%    100.00% # Number of insts issued each cycle
system.cpu.iq.issued_per_cycle::min_value            0                       # Number of insts issued each cycle
system.cpu.iq.issued_per_cycle::max_value            4                       # Number of insts issued each cycle
system.cpu.iq.issued_per_cycle::total         8908669                       # Number of insts issued each cycle
system.cpu.iq.rate                           2.192845                       # Inst issue rate
system.cpu.iq.vec_alu_accesses                      0                       # Number of vector alu accesses
system.cpu.iq.vec_inst_queue_reads                  0                       # Number of vector instruction queue reads
system.cpu.iq.vec_inst_queue_wakeup_accesses            0                       # Number of vector instruction queue wakeup accesses
system.cpu.iq.vec_inst_queue_writes                 0                       # Number of vector instruction queue writes
system.cpu.itb.rdAccesses                           0                       # TLB accesses on read requests
system.cpu.itb.rdMisses                             0                       # TLB misses on read requests
system.cpu.itb.wrAccesses                     1476384                       # TLB accesses on write requests
system.cpu.itb.wrMisses                           397                       # TLB misses on write requests
system.cpu.memDep0.conflictingLoads             67186                       # Number of conflicting loads.
system.cpu.memDep0.conflictingStores            64570                       # Number of conflicting stores.
system.cpu.memDep0.insertedLoads              2580672                       # Number of loads inserted to the mem dependence unit.
system.cpu.memDep0.insertedStores             1650496                       # Number of stores inserted to the mem dependence unit.
system.cpu.misc_regfile_reads                 8081023                       # number of misc regfile reads
system.cpu.misc_regfile_writes                    684                       # number of misc regfile writes
system.cpu.numCycles                          9079751                       # number of cpu cycles simulated
system.cpu.numWorkItemsCompleted                    0                       # number of work items this cpu completed
system.cpu.numWorkItemsStarted                      0                       # number of work items this cpu started
system.cpu.process.numSyscalls                     65                       # Number of system calls
system.cpu.rename.BlockCycles                 1120513                       # Number of cycles rename is blocking
system.cpu.rename.CommittedMaps              21302958                       # Number of HB maps that are committed
system.cpu.rename.FullRegisterEvents               68                       # Number of times there has been no free registers
system.cpu.rename.IQFullEvents                  81376                       # Number of times rename has blocked due to IQ full
system.cpu.rename.IdleCycles                  1788477                       # Number of cycles rename is idle
system.cpu.rename.LQFullEvents                  18150                       # Number of times rename has blocked due to LQ full
system.cpu.rename.ROBFullEvents                  4217                       # Number of times rename has blocked due to ROB full
system.cpu.rename.RenameLookups              53292976                       # Number of register rename lookups that rename has made
system.cpu.rename.RenamedInsts               21075355                       # Number of instructions processed by rename
system.cpu.rename.RenamedOperands            24249692                       # Number of destination operands rename has renamed
system.cpu.rename.RunCycles                   5647301                       # Number of cycles rename is running
system.cpu.rename.SQFullEvents                  79133                       # Number of times rename has blocked due to SQ full
system.cpu.rename.SquashCycles                  90843                       # Number of cycles rename is squashing
system.cpu.rename.UnblockCycles                229957                       # Number of cycles rename is unblocking
system.cpu.rename.UndoneMaps                  2946711                       # Number of HB maps that are undone due to squashing
system.cpu.rename.fp_rename_lookups           1187639                       # Number of floating rename lookups
system.cpu.rename.int_rename_lookups         31987730                       # Number of integer rename lookups
system.cpu.rename.serializeStallCycles          31578                       # count of cycles rename stalled for serializing inst
system.cpu.rename.serializingInsts               6261                       # count of serializing insts renamed
system.cpu.rename.skidInsts                    346778                       # count of insts added to the skid buffer
system.cpu.rename.tempSerializingInsts           9085                       # count of temporary serializing insts renamed
system.cpu.rob.rob_reads                     25955850                       # The number of ROB reads
system.cpu.rob.rob_writes                    41710757                       # The number of ROB writes
system.cpu.timesIdled                            2368                       # Number of times that the entire CPU went into an idle state and unscheduled itself
system.l2bus.snoop_filter.hit_multi_requests           13                       # Number of requests hitting in the snoop filter with multiple (>1) holders of the requested data.
system.l2bus.snoop_filter.hit_multi_snoops            0                       # Number of snoops hitting in the snoop filter with multiple (>1) holders of the requested data.
system.l2bus.snoop_filter.hit_single_requests        26766                       # Number of requests hitting in the snoop filter with a single holder of the requested data.
system.l2bus.snoop_filter.hit_single_snoops          488                       # Number of snoops hitting in the snoop filter with a single holder of the requested data.
system.l2bus.snoop_filter.tot_requests          54812                       # Total number of requests made to the snoop filter.
system.l2bus.snoop_filter.tot_snoops              488                       # Total number of snoops made to the snoop filter.
system.l2cache.prefetcher.num_hwpf_issued          799                       # number of hwpf issued
system.l2cache.prefetcher.pfBufferHit               0                       # number of redundant prefetches already in prefetch queue
system.l2cache.prefetcher.pfIdentified            799                       # number of prefetch candidates identified
system.l2cache.prefetcher.pfInCache                 0                       # number of redundant prefetches already in cache/mshr dropped
system.l2cache.prefetcher.pfRemovedFull             0                       # number of prefetches dropped due to prefetch queue size
system.l2cache.prefetcher.pfSpanPage              105                       # number of prefetches that crossed the page
system.membus.snoop_filter.hit_multi_requests            0                       # Number of requests hitting in the snoop filter with multiple (>1) holders of the requested data.
system.membus.snoop_filter.hit_multi_snoops            0                       # Number of snoops hitting in the snoop filter with multiple (>1) holders of the requested data.
system.membus.snoop_filter.hit_single_requests        10395                       # Number of requests hitting in the snoop filter with a single holder of the requested data.
system.membus.snoop_filter.hit_single_snoops            0                       # Number of snoops hitting in the snoop filter with a single holder of the requested data.
system.membus.snoop_filter.tot_requests         24912                       # Total number of requests made to the snoop filter.
system.membus.snoop_filter.tot_snoops               0                       # Total number of snoops made to the snoop filter.
system.membus.pwrStateResidencyTicks::UNDEFINED   3631900000                       # Cumulative time (in ticks) in various power states
system.membus.trans_dist::ReadResp              12609                       # Transaction distribution
system.membus.trans_dist::WritebackDirty         1416                       # Transaction distribution
system.membus.trans_dist::CleanEvict             8979                       # Transaction distribution
system.membus.trans_dist::ReadExReq              1908                       # Transaction distribution
system.membus.trans_dist::ReadExResp             1908                       # Transaction distribution
system.membus.trans_dist::ReadSharedReq         12609                       # Transaction distribution
system.membus.pkt_count_system.l2cache.mem_side::system.mem_ctrl.port        39429                       # Packet count per connected master and slave (bytes)
system.membus.pkt_count_system.l2cache.mem_side::total        39429                       # Packet count per connected master and slave (bytes)
system.membus.pkt_count::total                  39429                       # Packet count per connected master and slave (bytes)
system.membus.pkt_size_system.l2cache.mem_side::system.mem_ctrl.port      1019712                       # Cumulative packet size per connected master and slave (bytes)
system.membus.pkt_size_system.l2cache.mem_side::total      1019712                       # Cumulative packet size per connected master and slave (bytes)
system.membus.pkt_size::total                 1019712                       # Cumulative packet size per connected master and slave (bytes)
system.membus.snoops                                0                       # Total snoops (count)
system.membus.snoopTraffic                          0                       # Total snoop traffic (bytes)
system.membus.snoop_fanout::samples             14517                       # Request fanout histogram
system.membus.snoop_fanout::mean                    0                       # Request fanout histogram
system.membus.snoop_fanout::stdev                   0                       # Request fanout histogram
system.membus.snoop_fanout::underflows              0      0.00%      0.00% # Request fanout histogram
system.membus.snoop_fanout::0                   14517    100.00%    100.00% # Request fanout histogram
system.membus.snoop_fanout::1                       0      0.00%    100.00% # Request fanout histogram
system.membus.snoop_fanout::overflows               0      0.00%    100.00% # Request fanout histogram
system.membus.snoop_fanout::min_value               0                       # Request fanout histogram
system.membus.snoop_fanout::max_value               0                       # Request fanout histogram
system.membus.snoop_fanout::total               14517                       # Request fanout histogram
system.membus.reqLayer2.occupancy            12271233                       # Layer occupancy (ticks)
system.membus.reqLayer2.utilization               0.3                       # Layer utilization (%)
system.membus.respLayer0.occupancy           31529967                       # Layer occupancy (ticks)
system.membus.respLayer0.utilization              0.9                       # Layer utilization (%)
system.l2bus.pwrStateResidencyTicks::UNDEFINED   3631900000                       # Cumulative time (in ticks) in various power states
system.l2bus.trans_dist::ReadResp               25365                       # Transaction distribution
system.l2bus.trans_dist::WritebackDirty          4825                       # Transaction distribution
system.l2bus.trans_dist::CleanEvict             32445                       # Transaction distribution
system.l2bus.trans_dist::HardPFReq               1085                       # Transaction distribution
system.l2bus.trans_dist::ReadExReq               2681                       # Transaction distribution
system.l2bus.trans_dist::ReadExResp              2681                       # Transaction distribution
system.l2bus.trans_dist::ReadSharedReq          25365                       # Transaction distribution
system.l2bus.pkt_count_system.cpu.icache.mem_side::system.l2cache.cpu_side        28707                       # Packet count per connected master and slave (bytes)
system.l2bus.pkt_count_system.cpu.dcache.mem_side::system.l2cache.cpu_side        54146                       # Packet count per connected master and slave (bytes)
system.l2bus.pkt_count::total                   82853                       # Packet count per connected master and slave (bytes)
system.l2bus.pkt_size_system.cpu.icache.mem_side::system.l2cache.cpu_side       617984                       # Cumulative packet size per connected master and slave (bytes)
system.l2bus.pkt_size_system.cpu.dcache.mem_side::system.l2cache.cpu_side      1394816                       # Cumulative packet size per connected master and slave (bytes)
system.l2bus.pkt_size::total                  2012800                       # Cumulative packet size per connected master and slave (bytes)
system.l2bus.snoops                             11594                       # Total snoops (count)
system.l2bus.snoopTraffic                       90944                       # Total snoop traffic (bytes)
system.l2bus.snoop_fanout::samples              39635                       # Request fanout histogram
system.l2bus.snoop_fanout::mean              0.012640                       # Request fanout histogram
system.l2bus.snoop_fanout::stdev             0.111718                       # Request fanout histogram
system.l2bus.snoop_fanout::underflows               0      0.00%      0.00% # Request fanout histogram
system.l2bus.snoop_fanout::0                    39134     98.74%     98.74% # Request fanout histogram
system.l2bus.snoop_fanout::1                      501      1.26%    100.00% # Request fanout histogram
system.l2bus.snoop_fanout::2                        0      0.00%    100.00% # Request fanout histogram
system.l2bus.snoop_fanout::overflows                0      0.00%    100.00% # Request fanout histogram
system.l2bus.snoop_fanout::min_value                0                       # Request fanout histogram
system.l2bus.snoop_fanout::max_value                1                       # Request fanout histogram
system.l2bus.snoop_fanout::total                39635                       # Request fanout histogram
system.l2bus.respLayer1.occupancy            22071594                       # Layer occupancy (ticks)
system.l2bus.respLayer1.utilization               0.6                       # Layer utilization (%)
system.l2bus.reqLayer0.occupancy             26297965                       # Layer occupancy (ticks)
system.l2bus.reqLayer0.utilization                0.7                       # Layer utilization (%)
system.l2bus.respLayer0.occupancy            11587197                       # Layer occupancy (ticks)
system.l2bus.respLayer0.utilization               0.3                       # Layer utilization (%)
system.clk_domain.clock                           400                       # Clock period in ticks
system.clk_domain.voltage_domain.voltage            1                       # Voltage in Volts
system.cpu.pwrStateResidencyTicks::ON      3631900000                       # Cumulative time (in ticks) in various power states
system.cpu.icache.pwrStateResidencyTicks::UNDEFINED   3631900000                       # Cumulative time (in ticks) in various power states
system.cpu.icache.demand_hits::.cpu.inst      1465823                       # number of demand (read+write) hits
system.cpu.icache.demand_hits::total          1465823                       # number of demand (read+write) hits
system.cpu.icache.overall_hits::.cpu.inst      1465823                       # number of overall hits
system.cpu.icache.overall_hits::total         1465823                       # number of overall hits
system.cpu.icache.demand_misses::.cpu.inst        10417                       # number of demand (read+write) misses
system.cpu.icache.demand_misses::total          10417                       # number of demand (read+write) misses
system.cpu.icache.overall_misses::.cpu.inst        10417                       # number of overall misses
system.cpu.icache.overall_misses::total         10417                       # number of overall misses
system.cpu.icache.demand_miss_latency::.cpu.inst    257109200                       # number of demand (read+write) miss cycles
system.cpu.icache.demand_miss_latency::total    257109200                       # number of demand (read+write) miss cycles
system.cpu.icache.overall_miss_latency::.cpu.inst    257109200                       # number of overall miss cycles
system.cpu.icache.overall_miss_latency::total    257109200                       # number of overall miss cycles
system.cpu.icache.demand_accesses::.cpu.inst      1476240                       # number of demand (read+write) accesses
system.cpu.icache.demand_accesses::total      1476240                       # number of demand (read+write) accesses
system.cpu.icache.overall_accesses::.cpu.inst      1476240                       # number of overall (read+write) accesses
system.cpu.icache.overall_accesses::total      1476240                       # number of overall (read+write) accesses
system.cpu.icache.demand_miss_rate::.cpu.inst     0.007056                       # miss rate for demand accesses
system.cpu.icache.demand_miss_rate::total     0.007056                       # miss rate for demand accesses
system.cpu.icache.overall_miss_rate::.cpu.inst     0.007056                       # miss rate for overall accesses
system.cpu.icache.overall_miss_rate::total     0.007056                       # miss rate for overall accesses
system.cpu.icache.demand_avg_miss_latency::.cpu.inst 24681.693386                       # average overall miss latency
system.cpu.icache.demand_avg_miss_latency::total 24681.693386                       # average overall miss latency
system.cpu.icache.overall_avg_miss_latency::.cpu.inst 24681.693386                       # average overall miss latency
system.cpu.icache.overall_avg_miss_latency::total 24681.693386                       # average overall miss latency
system.cpu.icache.blocked_cycles::no_mshrs          160                       # number of cycles access was blocked
system.cpu.icache.blocked_cycles::no_targets            0                       # number of cycles access was blocked
system.cpu.icache.blocked::no_mshrs                 5                       # number of cycles access was blocked
system.cpu.icache.blocked::no_targets               0                       # number of cycles access was blocked
system.cpu.icache.avg_blocked_cycles::no_mshrs           32                       # average number of cycles each access was blocked
system.cpu.icache.avg_blocked_cycles::no_targets          nan                       # average number of cycles each access was blocked
system.cpu.icache.writebacks::.writebacks            3                       # number of writebacks
system.cpu.icache.writebacks::total                 3                       # number of writebacks
system.cpu.icache.demand_mshr_hits::.cpu.inst          761                       # number of demand (read+write) MSHR hits
system.cpu.icache.demand_mshr_hits::total          761                       # number of demand (read+write) MSHR hits
system.cpu.icache.overall_mshr_hits::.cpu.inst          761                       # number of overall MSHR hits
system.cpu.icache.overall_mshr_hits::total          761                       # number of overall MSHR hits
system.cpu.icache.demand_mshr_misses::.cpu.inst         9656                       # number of demand (read+write) MSHR misses
system.cpu.icache.demand_mshr_misses::total         9656                       # number of demand (read+write) MSHR misses
system.cpu.icache.overall_mshr_misses::.cpu.inst         9656                       # number of overall MSHR misses
system.cpu.icache.overall_mshr_misses::total         9656                       # number of overall MSHR misses
system.cpu.icache.demand_mshr_miss_latency::.cpu.inst    214209200                       # number of demand (read+write) MSHR miss cycles
system.cpu.icache.demand_mshr_miss_latency::total    214209200                       # number of demand (read+write) MSHR miss cycles
system.cpu.icache.overall_mshr_miss_latency::.cpu.inst    214209200                       # number of overall MSHR miss cycles
system.cpu.icache.overall_mshr_miss_latency::total    214209200                       # number of overall MSHR miss cycles
system.cpu.icache.demand_mshr_miss_rate::.cpu.inst     0.006541                       # mshr miss rate for demand accesses
system.cpu.icache.demand_mshr_miss_rate::total     0.006541                       # mshr miss rate for demand accesses
system.cpu.icache.overall_mshr_miss_rate::.cpu.inst     0.006541                       # mshr miss rate for overall accesses
system.cpu.icache.overall_mshr_miss_rate::total     0.006541                       # mshr miss rate for overall accesses
system.cpu.icache.demand_avg_mshr_miss_latency::.cpu.inst 22184.051367                       # average overall mshr miss latency
system.cpu.icache.demand_avg_mshr_miss_latency::total 22184.051367                       # average overall mshr miss latency
system.cpu.icache.overall_avg_mshr_miss_latency::.cpu.inst 22184.051367                       # average overall mshr miss latency
system.cpu.icache.overall_avg_mshr_miss_latency::total 22184.051367                       # average overall mshr miss latency
system.cpu.icache.replacements                   9399                       # number of replacements
system.cpu.icache.ReadReq_hits::.cpu.inst      1465823                       # number of ReadReq hits
system.cpu.icache.ReadReq_hits::total         1465823                       # number of ReadReq hits
system.cpu.icache.ReadReq_misses::.cpu.inst        10417                       # number of ReadReq misses
system.cpu.icache.ReadReq_misses::total         10417                       # number of ReadReq misses
system.cpu.icache.ReadReq_miss_latency::.cpu.inst    257109200                       # number of ReadReq miss cycles
system.cpu.icache.ReadReq_miss_latency::total    257109200                       # number of ReadReq miss cycles
system.cpu.icache.ReadReq_accesses::.cpu.inst      1476240                       # number of ReadReq accesses(hits+misses)
system.cpu.icache.ReadReq_accesses::total      1476240                       # number of ReadReq accesses(hits+misses)
system.cpu.icache.ReadReq_miss_rate::.cpu.inst     0.007056                       # miss rate for ReadReq accesses
system.cpu.icache.ReadReq_miss_rate::total     0.007056                       # miss rate for ReadReq accesses
system.cpu.icache.ReadReq_avg_miss_latency::.cpu.inst 24681.693386                       # average ReadReq miss latency
system.cpu.icache.ReadReq_avg_miss_latency::total 24681.693386                       # average ReadReq miss latency
system.cpu.icache.ReadReq_mshr_hits::.cpu.inst          761                       # number of ReadReq MSHR hits
system.cpu.icache.ReadReq_mshr_hits::total          761                       # number of ReadReq MSHR hits
system.cpu.icache.ReadReq_mshr_misses::.cpu.inst         9656                       # number of ReadReq MSHR misses
system.cpu.icache.ReadReq_mshr_misses::total         9656                       # number of ReadReq MSHR misses
system.cpu.icache.ReadReq_mshr_miss_latency::.cpu.inst    214209200                       # number of ReadReq MSHR miss cycles
system.cpu.icache.ReadReq_mshr_miss_latency::total    214209200                       # number of ReadReq MSHR miss cycles
system.cpu.icache.ReadReq_mshr_miss_rate::.cpu.inst     0.006541                       # mshr miss rate for ReadReq accesses
system.cpu.icache.ReadReq_mshr_miss_rate::total     0.006541                       # mshr miss rate for ReadReq accesses
system.cpu.icache.ReadReq_avg_mshr_miss_latency::.cpu.inst 22184.051367                       # average ReadReq mshr miss latency
system.cpu.icache.ReadReq_avg_mshr_miss_latency::total 22184.051367                       # average ReadReq mshr miss latency
system.cpu.icache.prefetcher.pwrStateResidencyTicks::UNDEFINED   3631900000                       # Cumulative time (in ticks) in various power states
system.cpu.icache.tags.pwrStateResidencyTicks::UNDEFINED   3631900000                       # Cumulative time (in ticks) in various power states
system.cpu.icache.tags.tagsinuse           255.241914                       # Cycle average of tags in use
system.cpu.icache.tags.total_refs              667204                       # Total number of references to valid blocks.
system.cpu.icache.tags.sampled_refs              9399                       # Sample count of references to valid blocks.
system.cpu.icache.tags.avg_refs             70.986701                       # Average number of references to valid blocks.
system.cpu.icache.tags.warmup_cycle             66400                       # Cycle when the warmup percentage was hit.
system.cpu.icache.tags.occ_blocks::.cpu.inst   255.241914                       # Average occupied blocks per requestor
system.cpu.icache.tags.occ_percent::.cpu.inst     0.997039                       # Average percentage of cache occupancy
system.cpu.icache.tags.occ_percent::total     0.997039                       # Average percentage of cache occupancy
system.cpu.icache.tags.occ_task_id_blocks::1024          256                       # Occupied blocks per task id
system.cpu.icache.tags.age_task_id_blocks_1024::0           95                       # Occupied blocks per task id
system.cpu.icache.tags.age_task_id_blocks_1024::2            5                       # Occupied blocks per task id
system.cpu.icache.tags.age_task_id_blocks_1024::3          156                       # Occupied blocks per task id
system.cpu.icache.tags.occ_task_id_percent::1024            1                       # Percentage of cache occupancy per task id
system.cpu.icache.tags.tag_accesses           2962135                       # Number of tag accesses
system.cpu.icache.tags.data_accesses          2962135                       # Number of data accesses
system.cpu.dtb.walker.pwrStateResidencyTicks::UNDEFINED   3631900000                       # Cumulative time (in ticks) in various power states
system.cpu.interrupts.clk_domain.clock           6400                       # Clock period in ticks
system.cpu.itb.walker.pwrStateResidencyTicks::UNDEFINED   3631900000                       # Cumulative time (in ticks) in various power states
system.cpu.dcache.pwrStateResidencyTicks::UNDEFINED   3631900000                       # Cumulative time (in ticks) in various power states
system.cpu.dcache.demand_hits::.cpu.data      3740294                       # number of demand (read+write) hits
system.cpu.dcache.demand_hits::total          3740294                       # number of demand (read+write) hits
system.cpu.dcache.overall_hits::.cpu.data      3740294                       # number of overall hits
system.cpu.dcache.overall_hits::total         3740294                       # number of overall hits
system.cpu.dcache.demand_misses::.cpu.data        35441                       # number of demand (read+write) misses
system.cpu.dcache.demand_misses::total          35441                       # number of demand (read+write) misses
system.cpu.dcache.overall_misses::.cpu.data        35441                       # number of overall misses
system.cpu.dcache.overall_misses::total         35441                       # number of overall misses
system.cpu.dcache.demand_miss_latency::.cpu.data   1706756399                       # number of demand (read+write) miss cycles
system.cpu.dcache.demand_miss_latency::total   1706756399                       # number of demand (read+write) miss cycles
system.cpu.dcache.overall_miss_latency::.cpu.data   1706756399                       # number of overall miss cycles
system.cpu.dcache.overall_miss_latency::total   1706756399                       # number of overall miss cycles
system.cpu.dcache.demand_accesses::.cpu.data      3775735                       # number of demand (read+write) accesses
system.cpu.dcache.demand_accesses::total      3775735                       # number of demand (read+write) accesses
system.cpu.dcache.overall_accesses::.cpu.data      3775735                       # number of overall (read+write) accesses
system.cpu.dcache.overall_accesses::total      3775735                       # number of overall (read+write) accesses
system.cpu.dcache.demand_miss_rate::.cpu.data     0.009387                       # miss rate for demand accesses
system.cpu.dcache.demand_miss_rate::total     0.009387                       # miss rate for demand accesses
system.cpu.dcache.overall_miss_rate::.cpu.data     0.009387                       # miss rate for overall accesses
system.cpu.dcache.overall_miss_rate::total     0.009387                       # miss rate for overall accesses
system.cpu.dcache.demand_avg_miss_latency::.cpu.data 48157.681753                       # average overall miss latency
system.cpu.dcache.demand_avg_miss_latency::total 48157.681753                       # average overall miss latency
system.cpu.dcache.overall_avg_miss_latency::.cpu.data 48157.681753                       # average overall miss latency
system.cpu.dcache.overall_avg_miss_latency::total 48157.681753                       # average overall miss latency
system.cpu.dcache.blocked_cycles::no_mshrs        31138                       # number of cycles access was blocked
system.cpu.dcache.blocked_cycles::no_targets          138                       # number of cycles access was blocked
system.cpu.dcache.blocked::no_mshrs               732                       # number of cycles access was blocked
system.cpu.dcache.blocked::no_targets               1                       # number of cycles access was blocked
system.cpu.dcache.avg_blocked_cycles::no_mshrs    42.538251                       # average number of cycles each access was blocked
system.cpu.dcache.avg_blocked_cycles::no_targets          138                       # average number of cycles each access was blocked
system.cpu.dcache.unused_prefetches              2170                       # number of HardPF blocks evicted w/o reference
system.cpu.dcache.writebacks::.writebacks         3406                       # number of writebacks
system.cpu.dcache.writebacks::total              3406                       # number of writebacks
system.cpu.dcache.demand_mshr_hits::.cpu.data        22180                       # number of demand (read+write) MSHR hits
system.cpu.dcache.demand_mshr_hits::total        22180                       # number of demand (read+write) MSHR hits
system.cpu.dcache.overall_mshr_hits::.cpu.data        22180                       # number of overall MSHR hits
system.cpu.dcache.overall_mshr_hits::total        22180                       # number of overall MSHR hits
system.cpu.dcache.demand_mshr_misses::.cpu.data        13261                       # number of demand (read+write) MSHR misses
system.cpu.dcache.demand_mshr_misses::total        13261                       # number of demand (read+write) MSHR misses
system.cpu.dcache.overall_mshr_misses::.cpu.data        13261                       # number of overall MSHR misses
system.cpu.dcache.overall_mshr_misses::.cpu.dcache.prefetcher         5130                       # number of overall MSHR misses
system.cpu.dcache.overall_mshr_misses::total        18391                       # number of overall MSHR misses
system.cpu.dcache.demand_mshr_miss_latency::.cpu.data    615653999                       # number of demand (read+write) MSHR miss cycles
system.cpu.dcache.demand_mshr_miss_latency::total    615653999                       # number of demand (read+write) MSHR miss cycles
system.cpu.dcache.overall_mshr_miss_latency::.cpu.data    615653999                       # number of overall MSHR miss cycles
system.cpu.dcache.overall_mshr_miss_latency::.cpu.dcache.prefetcher    275166906                       # number of overall MSHR miss cycles
system.cpu.dcache.overall_mshr_miss_latency::total    890820905                       # number of overall MSHR miss cycles
system.cpu.dcache.demand_mshr_miss_rate::.cpu.data     0.003512                       # mshr miss rate for demand accesses
system.cpu.dcache.demand_mshr_miss_rate::total     0.003512                       # mshr miss rate for demand accesses
system.cpu.dcache.overall_mshr_miss_rate::.cpu.data     0.003512                       # mshr miss rate for overall accesses
system.cpu.dcache.overall_mshr_miss_rate::.cpu.dcache.prefetcher          inf                       # mshr miss rate for overall accesses
system.cpu.dcache.overall_mshr_miss_rate::total     0.004871                       # mshr miss rate for overall accesses
system.cpu.dcache.demand_avg_mshr_miss_latency::.cpu.data 46425.910489                       # average overall mshr miss latency
system.cpu.dcache.demand_avg_mshr_miss_latency::total 46425.910489                       # average overall mshr miss latency
system.cpu.dcache.overall_avg_mshr_miss_latency::.cpu.data 46425.910489                       # average overall mshr miss latency
system.cpu.dcache.overall_avg_mshr_miss_latency::.cpu.dcache.prefetcher 53638.773099                       # average overall mshr miss latency
system.cpu.dcache.overall_avg_mshr_miss_latency::total 48437.872057                       # average overall mshr miss latency
system.cpu.dcache.replacements                  17367                       # number of replacements
system.cpu.dcache.ReadReq_hits::.cpu.data      2265152                       # number of ReadReq hits
system.cpu.dcache.ReadReq_hits::total         2265152                       # number of ReadReq hits
system.cpu.dcache.ReadReq_misses::.cpu.data        32717                       # number of ReadReq misses
system.cpu.dcache.ReadReq_misses::total         32717                       # number of ReadReq misses
system.cpu.dcache.ReadReq_miss_latency::.cpu.data   1561525600                       # number of ReadReq miss cycles
system.cpu.dcache.ReadReq_miss_latency::total   1561525600                       # number of ReadReq miss cycles
system.cpu.dcache.ReadReq_accesses::.cpu.data      2297869                       # number of ReadReq accesses(hits+misses)
system.cpu.dcache.ReadReq_accesses::total      2297869                       # number of ReadReq accesses(hits+misses)
system.cpu.dcache.ReadReq_miss_rate::.cpu.data     0.014238                       # miss rate for ReadReq accesses
system.cpu.dcache.ReadReq_miss_rate::total     0.014238                       # miss rate for ReadReq accesses
system.cpu.dcache.ReadReq_avg_miss_latency::.cpu.data 47728.263594                       # average ReadReq miss latency
system.cpu.dcache.ReadReq_avg_miss_latency::total 47728.263594                       # average ReadReq miss latency
system.cpu.dcache.ReadReq_mshr_hits::.cpu.data        22136                       # number of ReadReq MSHR hits
system.cpu.dcache.ReadReq_mshr_hits::total        22136                       # number of ReadReq MSHR hits
system.cpu.dcache.ReadReq_mshr_misses::.cpu.data        10581                       # number of ReadReq MSHR misses
system.cpu.dcache.ReadReq_mshr_misses::total        10581                       # number of ReadReq MSHR misses
system.cpu.dcache.ReadReq_mshr_miss_latency::.cpu.data    474658400                       # number of ReadReq MSHR miss cycles
system.cpu.dcache.ReadReq_mshr_miss_latency::total    474658400                       # number of ReadReq MSHR miss cycles
system.cpu.dcache.ReadReq_mshr_miss_rate::.cpu.data     0.004605                       # mshr miss rate for ReadReq accesses
system.cpu.dcache.ReadReq_mshr_miss_rate::total     0.004605                       # mshr miss rate for ReadReq accesses
system.cpu.dcache.ReadReq_avg_mshr_miss_latency::.cpu.data 44859.502883                       # average ReadReq mshr miss latency
system.cpu.dcache.ReadReq_avg_mshr_miss_latency::total 44859.502883                       # average ReadReq mshr miss latency
system.cpu.dcache.WriteReq_hits::.cpu.data      1475142                       # number of WriteReq hits
system.cpu.dcache.WriteReq_hits::total        1475142                       # number of WriteReq hits
system.cpu.dcache.WriteReq_misses::.cpu.data         2724                       # number of WriteReq misses
system.cpu.dcache.WriteReq_misses::total         2724                       # number of WriteReq misses
system.cpu.dcache.WriteReq_miss_latency::.cpu.data    145230799                       # number of WriteReq miss cycles
system.cpu.dcache.WriteReq_miss_latency::total    145230799                       # number of WriteReq miss cycles
system.cpu.dcache.WriteReq_accesses::.cpu.data      1477866                       # number of WriteReq accesses(hits+misses)
system.cpu.dcache.WriteReq_accesses::total      1477866                       # number of WriteReq accesses(hits+misses)
system.cpu.dcache.WriteReq_miss_rate::.cpu.data     0.001843                       # miss rate for WriteReq accesses
system.cpu.dcache.WriteReq_miss_rate::total     0.001843                       # miss rate for WriteReq accesses
system.cpu.dcache.WriteReq_avg_miss_latency::.cpu.data 53315.271292                       # average WriteReq miss latency
system.cpu.dcache.WriteReq_avg_miss_latency::total 53315.271292                       # average WriteReq miss latency
system.cpu.dcache.WriteReq_mshr_hits::.cpu.data           44                       # number of WriteReq MSHR hits
system.cpu.dcache.WriteReq_mshr_hits::total           44                       # number of WriteReq MSHR hits
system.cpu.dcache.WriteReq_mshr_misses::.cpu.data         2680                       # number of WriteReq MSHR misses
system.cpu.dcache.WriteReq_mshr_misses::total         2680                       # number of WriteReq MSHR misses
[...]
system.l2cache.demand_mshr_misses::.cpu.data          179                       # number of demand (read+write) MSHR misses
system.l2cache.demand_mshr_misses::.cpu.dcache.prefetcher           37                       # number of demand (read+write) MSHR misses
system.l2cache.demand_mshr_misses::total          446                       # number of demand (read+write) MSHR misses
system.l2cache.overall_mshr_misses::.cpu.inst          230                       # number of overall MSHR misses
system.l2cache.overall_mshr_misses::.cpu.data          179                       # number of overall MSHR misses
system.l2cache.overall_mshr_misses::.cpu.dcache.prefetcher           37                       # number of overall MSHR misses
system.l2cache.overall_mshr_misses::total          446                       # number of overall MSHR misses
system.l2cache.demand_mshr_miss_latency::.cpu.inst     13752000                       # number of demand (read+write) MSHR miss cycles
system.l2cache.demand_mshr_miss_latency::.cpu.data     10949600                       # number of demand (read+write) MSHR miss cycles
system.l2cache.demand_mshr_miss_latency::.cpu.dcache.prefetcher      2171964                       # number of demand (read+write) MSHR miss cycles
system.l2cache.demand_mshr_miss_latency::total     26873564                       # number of demand (read+write) MSHR miss cycles
system.l2cache.overall_mshr_miss_latency::.cpu.inst     13752000                       # number of overall MSHR miss cycles
system.l2cache.overall_mshr_miss_latency::.cpu.data     10949600                       # number of overall MSHR miss cycles
system.l2cache.overall_mshr_miss_latency::.cpu.dcache.prefetcher      2171964                       # number of overall MSHR miss cycles
system.l2cache.overall_mshr_miss_latency::total     26873564                       # number of overall MSHR miss cycles
system.l2cache.demand_mshr_miss_rate::.cpu.inst     0.402802                       # mshr miss rate for demand accesses
system.l2cache.demand_mshr_miss_rate::.cpu.data     0.221261                       # mshr miss rate for demand accesses
system.l2cache.demand_mshr_miss_rate::.cpu.dcache.prefetcher     0.255172                       # mshr miss rate for demand accesses
system.l2cache.demand_mshr_miss_rate::total     0.292459                       # mshr miss rate for demand accesses
system.l2cache.overall_mshr_miss_rate::.cpu.inst     0.402802                       # mshr miss rate for overall accesses
system.l2cache.overall_mshr_miss_rate::.cpu.data     0.221261                       # mshr miss rate for overall accesses
system.l2cache.overall_mshr_miss_rate::.cpu.dcache.prefetcher     0.255172                       # mshr miss rate for overall accesses
system.l2cache.overall_mshr_miss_rate::total     0.292459                       # mshr miss rate for overall accesses
system.l2cache.demand_avg_mshr_miss_latency::.cpu.inst 59791.304348                       # average overall mshr miss latency
system.l2cache.demand_avg_mshr_miss_latency::.cpu.data 61170.949721                       # average overall mshr miss latency
system.l2cache.demand_avg_mshr_miss_latency::.cpu.dcache.prefetcher 58701.729730                       # average overall mshr miss latency
system.l2cache.demand_avg_mshr_miss_latency::total 60254.627803                       # average overall mshr miss latency
system.l2cache.overall_avg_mshr_miss_latency::.cpu.inst 59791.304348                       # average overall mshr miss latency
system.l2cache.overall_avg_mshr_miss_latency::.cpu.data 61170.949721                       # average overall mshr miss latency
system.l2cache.overall_avg_mshr_miss_latency::.cpu.dcache.prefetcher 58701.729730                       # average overall mshr miss latency
system.l2cache.overall_avg_mshr_miss_latency::total 60254.627803                       # average overall mshr miss latency
system.l2cache.replacements                       446                       # number of replacements
system.l2cache.WritebackDirty_hits::.writebacks          841                       # number of WritebackDirty hits
system.l2cache.WritebackDirty_hits::total          841                       # number of WritebackDirty hits
system.l2cache.WritebackDirty_accesses::.writebacks          841                       # number of WritebackDirty accesses(hits+misses)
system.l2cache.WritebackDirty_accesses::total          841                       # number of WritebackDirty accesses(hits+misses)
system.l2cache.CleanEvict_mshr_misses::.writebacks            9                       # number of CleanEvict MSHR misses
system.l2cache.CleanEvict_mshr_misses::total            9                       # number of CleanEvict MSHR misses
system.l2cache.CleanEvict_mshr_miss_rate::.writebacks          inf                       # mshr miss rate for CleanEvict accesses
system.l2cache.CleanEvict_mshr_miss_rate::total          inf                       # mshr miss rate for CleanEvict accesses
system.l2cache.ReadExReq_hits::.cpu.data          191                       # number of ReadExReq hits
system.l2cache.ReadExReq_hits::total              191                       # number of ReadExReq hits
system.l2cache.ReadExReq_misses::.cpu.data            7                       # number of ReadExReq misses
system.l2cache.ReadExReq_misses::total              7                       # number of ReadExReq misses
system.l2cache.ReadExReq_miss_latency::.cpu.data       481200                       # number of ReadExReq miss cycles
system.l2cache.ReadExReq_miss_latency::total       481200                       # number of ReadExReq miss cycles
system.l2cache.ReadExReq_accesses::.cpu.data          198                       # number of ReadExReq accesses(hits+misses)
system.l2cache.ReadExReq_accesses::total          198                       # number of ReadExReq accesses(hits+misses)
system.l2cache.ReadExReq_miss_rate::.cpu.data     0.035354                       # miss rate for ReadExReq accesses
system.l2cache.ReadExReq_miss_rate::total     0.035354                       # miss rate for ReadExReq accesses
system.l2cache.ReadExReq_avg_miss_latency::.cpu.data 68742.857143                       # average ReadExReq miss latency
system.l2cache.ReadExReq_avg_miss_latency::total 68742.857143                       # average ReadExReq miss latency
system.l2cache.ReadExReq_mshr_misses::.cpu.data            7                       # number of ReadExReq MSHR misses
system.l2cache.ReadExReq_mshr_misses::total            7                       # number of ReadExReq MSHR misses
system.l2cache.ReadExReq_mshr_miss_latency::.cpu.data       425200                       # number of ReadExReq MSHR miss cycles
system.l2cache.ReadExReq_mshr_miss_latency::total       425200                       # number of ReadExReq MSHR miss cycles
system.l2cache.ReadExReq_mshr_miss_rate::.cpu.data     0.035354                       # mshr miss rate for ReadExReq accesses
system.l2cache.ReadExReq_mshr_miss_rate::total     0.035354                       # mshr miss rate for ReadExReq accesses
system.l2cache.ReadExReq_avg_mshr_miss_latency::.cpu.data 60742.857143                       # average ReadExReq mshr miss latency
system.l2cache.ReadExReq_avg_mshr_miss_latency::total 60742.857143                       # average ReadExReq mshr miss latency
system.l2cache.ReadSharedReq_hits::.cpu.inst          341                       # number of ReadSharedReq hits
system.l2cache.ReadSharedReq_hits::.cpu.data          439                       # number of ReadSharedReq hits
system.l2cache.ReadSharedReq_hits::.cpu.dcache.prefetcher          108                       # number of ReadSharedReq hits
system.l2cache.ReadSharedReq_hits::total          888                       # number of ReadSharedReq hits
system.l2cache.ReadSharedReq_misses::.cpu.inst          230                       # number of ReadSharedReq misses
system.l2cache.ReadSharedReq_misses::.cpu.data          172                       # number of ReadSharedReq misses
system.l2cache.ReadSharedReq_misses::.cpu.dcache.prefetcher           37                       # number of ReadSharedReq misses
system.l2cache.ReadSharedReq_misses::total          439                       # number of ReadSharedReq misses
system.l2cache.ReadSharedReq_miss_latency::.cpu.inst     15584000                       # number of ReadSharedReq miss cycles
system.l2cache.ReadSharedReq_miss_latency::.cpu.data     11900400                       # number of ReadSharedReq miss cycles
system.l2cache.ReadSharedReq_miss_latency::.cpu.dcache.prefetcher      2467964                       # number of ReadSharedReq miss cycles
system.l2cache.ReadSharedReq_miss_latency::total     29952364                       # number of ReadSharedReq miss cycles
system.l2cache.ReadSharedReq_accesses::.cpu.inst          571                       # number of ReadSharedReq accesses(hits+misses)
system.l2cache.ReadSharedReq_accesses::.cpu.data          611                       # number of ReadSharedReq accesses(hits+misses)
system.l2cache.ReadSharedReq_accesses::.cpu.dcache.prefetcher          145                       # number of ReadSharedReq accesses(hits+misses)
system.l2cache.ReadSharedReq_accesses::total         1327                       # number of ReadSharedReq accesses(hits+misses)
system.l2cache.ReadSharedReq_miss_rate::.cpu.inst     0.402802                       # miss rate for ReadSharedReq accesses
system.l2cache.ReadSharedReq_miss_rate::.cpu.data     0.281506                       # miss rate for ReadSharedReq accesses
system.l2cache.ReadSharedReq_miss_rate::.cpu.dcache.prefetcher     0.255172                       # miss rate for ReadSharedReq accesses
system.l2cache.ReadSharedReq_miss_rate::total     0.330821                       # miss rate for ReadSharedReq accesses
system.l2cache.ReadSharedReq_avg_miss_latency::.cpu.inst 67756.521739                       # average ReadSharedReq miss latency
system.l2cache.ReadSharedReq_avg_miss_latency::.cpu.data 69188.372093                       # average ReadSharedReq miss latency
system.l2cache.ReadSharedReq_avg_miss_latency::.cpu.dcache.prefetcher 66701.729730                       # average ReadSharedReq miss latency
system.l2cache.ReadSharedReq_avg_miss_latency::total 68228.619590                       # average ReadSharedReq miss latency
system.l2cache.ReadSharedReq_mshr_misses::.cpu.inst          230                       # number of ReadSharedReq MSHR misses
system.l2cache.ReadSharedReq_mshr_misses::.cpu.data          172                       # number of ReadSharedReq MSHR misses
system.l2cache.ReadSharedReq_mshr_misses::.cpu.dcache.prefetcher           37                       # number of ReadSharedReq MSHR misses
system.l2cache.ReadSharedReq_mshr_misses::total          439                       # number of ReadSharedReq MSHR misses
system.l2cache.ReadSharedReq_mshr_miss_latency::.cpu.inst     13752000                       # number of ReadSharedReq MSHR miss cycles
system.l2cache.ReadSharedReq_mshr_miss_latency::.cpu.data     10524400                       # number of ReadSharedReq MSHR miss cycles
system.l2cache.ReadSharedReq_mshr_miss_latency::.cpu.dcache.prefetcher      2171964                       # number of ReadSharedReq MSHR miss cycles
system.l2cache.ReadSharedReq_mshr_miss_latency::total     26448364                       # number of ReadSharedReq MSHR miss cycles
system.l2cache.ReadSharedReq_mshr_miss_rate::.cpu.inst     0.402802                       # mshr miss rate for ReadSharedReq accesses
system.l2cache.ReadSharedReq_mshr_miss_rate::.cpu.data     0.281506                       # mshr miss rate for ReadSharedReq accesses
system.l2cache.ReadSharedReq_mshr_miss_rate::.cpu.dcache.prefetcher     0.255172                       # mshr miss rate for ReadSharedReq accesses
system.l2cache.ReadSharedReq_mshr_miss_rate::total     0.330821                       # mshr miss rate for ReadSharedReq accesses
system.l2cache.ReadSharedReq_avg_mshr_miss_latency::.cpu.inst 59791.304348                       # average ReadSharedReq mshr miss latency
system.l2cache.ReadSharedReq_avg_mshr_miss_latency::.cpu.data 61188.372093                       # average ReadSharedReq mshr miss latency
system.l2cache.ReadSharedReq_avg_mshr_miss_latency::.cpu.dcache.prefetcher 58701.729730                       # average ReadSharedReq mshr miss latency
system.l2cache.ReadSharedReq_avg_mshr_miss_latency::total 60246.842825                       # average ReadSharedReq mshr miss latency
system.l2cache.prefetcher.pwrStateResidencyTicks::UNDEFINED   2172844800                       # Cumulative time (in ticks) in various power states
system.l2cache.tags.pwrStateResidencyTicks::UNDEFINED   2172844800                       # Cumulative time (in ticks) in various power states
system.l2cache.tags.tagsinuse                    4096                       # Cycle average of tags in use
system.l2cache.tags.total_refs                  29380                       # Total number of references to valid blocks.
system.l2cache.tags.sampled_refs                 4542                       # Sample count of references to valid blocks.
system.l2cache.tags.avg_refs                 6.468516                       # Average number of references to valid blocks.
system.l2cache.tags.warmup_cycle                    0                       # Cycle when the warmup percentage was hit.
system.l2cache.tags.occ_blocks::.writebacks    57.999264                       # Average occupied blocks per requestor
system.l2cache.tags.occ_blocks::.cpu.inst   862.067056                       # Average occupied blocks per requestor
system.l2cache.tags.occ_blocks::.cpu.data  2093.986406                       # Average occupied blocks per requestor
system.l2cache.tags.occ_blocks::.cpu.dcache.prefetcher   787.946104                       # Average occupied blocks per requestor
system.l2cache.tags.occ_blocks::.l2cache.prefetcher   294.001171                       # Average occupied blocks per requestor
system.l2cache.tags.occ_percent::.writebacks     0.014160                       # Average percentage of cache occupancy
system.l2cache.tags.occ_percent::.cpu.inst     0.210466                       # Average percentage of cache occupancy
system.l2cache.tags.occ_percent::.cpu.data     0.511227                       # Average percentage of cache occupancy
system.l2cache.tags.occ_percent::.cpu.dcache.prefetcher     0.192370                       # Average percentage of cache occupancy
system.l2cache.tags.occ_percent::.l2cache.prefetcher     0.071778                       # Average percentage of cache occupancy
system.l2cache.tags.occ_percent::total              1                       # Average percentage of cache occupancy
system.l2cache.tags.occ_task_id_blocks::1022         1020                       # Occupied blocks per task id
system.l2cache.tags.occ_task_id_blocks::1024         3076                       # Occupied blocks per task id
system.l2cache.tags.age_task_id_blocks_1022::0           19                       # Occupied blocks per task id
system.l2cache.tags.age_task_id_blocks_1022::1            4                       # Occupied blocks per task id
system.l2cache.tags.age_task_id_blocks_1022::3          340                       # Occupied blocks per task id
system.l2cache.tags.age_task_id_blocks_1022::4          657                       # Occupied blocks per task id
system.l2cache.tags.age_task_id_blocks_1024::0          184                       # Occupied blocks per task id
system.l2cache.tags.age_task_id_blocks_1024::1           72                       # Occupied blocks per task id
system.l2cache.tags.age_task_id_blocks_1024::3          649                       # Occupied blocks per task id
system.l2cache.tags.age_task_id_blocks_1024::4         2171                       # Occupied blocks per task id
system.l2cache.tags.occ_task_id_percent::1022     0.249023                       # Percentage of cache occupancy per task id
system.l2cache.tags.occ_task_id_percent::1024     0.750977                       # Percentage of cache occupancy per task id
system.l2cache.tags.tag_accesses                24838                       # Number of tag accesses
system.l2cache.tags.data_accesses               24838                       # Number of data accesses
system.mem_ctrl.pwrStateResidencyTicks::UNDEFINED   2172844800                       # Cumulative time (in ticks) in various power states
system.mem_ctrl.bytes_read::.cpu.inst           14656                       # Number of bytes read from this memory
system.mem_ctrl.bytes_read::.cpu.data           11456                       # Number of bytes read from this memory
system.mem_ctrl.bytes_read::.cpu.dcache.prefetcher         2368                       # Number of bytes read from this memory
system.mem_ctrl.bytes_read::total               28480                       # Number of bytes read from this memory
system.mem_ctrl.bytes_inst_read::.cpu.inst        14656                       # Number of instructions bytes read from this memory
system.mem_ctrl.bytes_inst_read::total          14656                       # Number of instructions bytes read from this memory
system.mem_ctrl.bytes_written::.writebacks         2240                       # Number of bytes written to this memory
system.mem_ctrl.bytes_written::total             2240                       # Number of bytes written to this memory
system.mem_ctrl.num_reads::.cpu.inst              229                       # Number of read requests responded to by this memory
system.mem_ctrl.num_reads::.cpu.data              179                       # Number of read requests responded to by this memory
system.mem_ctrl.num_reads::.cpu.dcache.prefetcher           37                       # Number of read requests responded to by this memory
system.mem_ctrl.num_reads::total                  445                       # Number of read requests responded to by this memory
system.mem_ctrl.num_writes::.writebacks            35                       # Number of write requests responded to by this memory
system.mem_ctrl.num_writes::total                  35                       # Number of write requests responded to by this memory
system.mem_ctrl.bw_read::.cpu.inst            6745074                       # Total read bandwidth from this memory (bytes/s)
system.mem_ctrl.bw_read::.cpu.data            5272351                       # Total read bandwidth from this memory (bytes/s)
system.mem_ctrl.bw_read::.cpu.dcache.prefetcher      1089816                       # Total read bandwidth from this memory (bytes/s)
system.mem_ctrl.bw_read::total               13107241                       # Total read bandwidth from this memory (bytes/s)
system.mem_ctrl.bw_inst_read::.cpu.inst       6745074                       # Instruction read bandwidth from this memory (bytes/s)
system.mem_ctrl.bw_inst_read::total           6745074                       # Instruction read bandwidth from this memory (bytes/s)
system.mem_ctrl.bw_write::.writebacks         1030907                       # Write bandwidth from this memory (bytes/s)
system.mem_ctrl.bw_write::total               1030907                       # Write bandwidth from this memory (bytes/s)
system.mem_ctrl.bw_total::.writebacks         1030907                       # Total bandwidth to/from this memory (bytes/s)
system.mem_ctrl.bw_total::.cpu.inst           6745074                       # Total bandwidth to/from this memory (bytes/s)
system.mem_ctrl.bw_total::.cpu.data           5272351                       # Total bandwidth to/from this memory (bytes/s)
system.mem_ctrl.bw_total::.cpu.dcache.prefetcher      1089816                       # Total bandwidth to/from this memory (bytes/s)
system.mem_ctrl.bw_total::total              14138147                       # Total bandwidth to/from this memory (bytes/s)

---------- End Simulation Statistics   ----------
