
---------- Begin Simulation Statistics ----------
final_tick                                 1356452400                       # Number of ticks from beginning of simulation (restored from checkpoints and never reset)
host_inst_rate                                 195690                       # Simulator instruction rate (inst/s)
host_mem_usage                                4406844                       # Number of bytes of host memory used
host_op_rate                                   360287                       # Simulator op (including micro ops) rate (op/s)
host_seconds                                    15.07                       # Real time elapsed on the host
host_tick_rate                               89987059                       # Simulator tick rate (ticks/s)
sim_freq                                 1000000000000                       # Frequency of simulated ticks
sim_insts                                     2949780                       # Number of instructions simulated
sim_ops                                       5430915                       # Number of ops (including micro ops) simulated
sim_seconds                                  0.001356                       # Number of seconds simulated
sim_ticks                                  1356452400                       # Number of ticks simulated
system.cpu.branchPred.BTBCorrect                    0                       # Number of correct BTB predictions (this stat may not work properly.
system.cpu.branchPred.BTBHitPct              0.000000                       # BTB Hit Percentage
system.cpu.branchPred.BTBHits                       0                       # Number of BTB hits
system.cpu.branchPred.BTBLookups               581164                       # Number of BTB lookups
system.cpu.branchPred.RASInCorrect                  6                       # Number of incorrect RAS predictions.
system.cpu.branchPred.condIncorrect             24493                       # Number of conditional branches incorrect
system.cpu.branchPred.condPredicted            601518                       # Number of conditional branches predicted
system.cpu.branchPred.indirectHits             306413                       # Number of indirect target hits.
system.cpu.branchPred.indirectLookups          581164                       # Number of indirect predictor lookups.
system.cpu.branchPred.indirectMisses           274751                       # Number of indirect misses.
system.cpu.branchPred.lookups                  656724                       # Number of BP lookups
system.cpu.branchPred.usedRAS                   25797                       # Number of times the RAS was used to get a target.
system.cpu.branchPredindirectMispredicted        12166                       # Number of mispredicted indirect branches.
system.cpu.cc_regfile_reads                   3367607                       # number of cc regfile reads
system.cpu.cc_regfile_writes                  2461651                       # number of cc regfile writes
system.cpu.commit.amos                              0                       # Number of atomic instructions committed
system.cpu.commit.branchMispredicts             24601                       # The number of times a branch was mispredicted
system.cpu.commit.branches                     510020                       # Number of branches committed
system.cpu.commit.bw_lim_events                912535                       # number cycles where commit BW limit reached
system.cpu.commit.commitNonSpecStalls             760                       # The number of times commit has been forced to stall to communicate backwards
system.cpu.commit.commitSquashedInsts          907627                       # The number of squashed insts skipped by commit
system.cpu.commit.committedInsts              2949780                       # Number of instructions committed
system.cpu.commit.committedOps                5430915                       # Number of ops (including micro ops) committed
system.cpu.commit.committed_per_cycle::samples      2979858                       # Number of insts commited each cycle
system.cpu.commit.committed_per_cycle::mean     1.822542                       # Number of insts commited each cycle
system.cpu.commit.committed_per_cycle::stdev     1.735719                       # Number of insts commited each cycle
system.cpu.commit.committed_per_cycle::underflows            0      0.00%      0.00% # Number of insts commited each cycle
system.cpu.commit.committed_per_cycle::0      1207478     40.52%     40.52% # Number of insts commited each cycle
system.cpu.commit.committed_per_cycle::1       265088      8.90%     49.42% # Number of insts commited each cycle
system.cpu.commit.committed_per_cycle::2       268584      9.01%     58.43% # Number of insts commited each cycle
system.cpu.commit.committed_per_cycle::3       326173     10.95%     69.38% # Number of insts commited each cycle
system.cpu.commit.committed_per_cycle::4       912535     30.62%    100.00% # Number of insts commited each cycle
system.cpu.commit.committed_per_cycle::overflows            0      0.00%    100.00% # Number of insts commited each cycle
system.cpu.commit.committed_per_cycle::min_value            0                       # Number of insts commited each cycle
system.cpu.commit.committed_per_cycle::max_value            4                       # Number of insts commited each cycle
system.cpu.commit.committed_per_cycle::total      2979858                       # Number of insts commited each cycle
system.cpu.commit.fp_insts                     177375                       # Number of committed floating point instructions.
system.cpu.commit.function_calls                23725                       # Number of function calls committed.
system.cpu.commit.int_insts                   5293464                       # Number of committed integer instructions.
system.cpu.commit.loads                        724924                       # Number of loads committed
system.cpu.commit.membars                           1                       # Number of memory barriers committed
system.cpu.commit.op_class_0::No_OpClass        28715      0.53%      0.53% # Class of committed instruction
system.cpu.commit.op_class_0::IntAlu          4171363     76.81%     77.34% # Class of committed instruction
system.cpu.commit.op_class_0::IntMult            5806      0.11%     77.44% # Class of committed instruction
system.cpu.commit.op_class_0::IntDiv            37658      0.69%     78.14% # Class of committed instruction
system.cpu.commit.op_class_0::FloatAdd           6989      0.13%     78.27% # Class of committed instruction
system.cpu.commit.op_class_0::FloatCmp              0      0.00%     78.27% # Class of committed instruction
system.cpu.commit.op_class_0::FloatCvt           1248      0.02%     78.29% # Class of committed instruction
system.cpu.commit.op_class_0::FloatMult             0      0.00%     78.29% # Class of committed instruction
system.cpu.commit.op_class_0::FloatMultAcc            0      0.00%     78.29% # Class of committed instruction
system.cpu.commit.op_class_0::FloatDiv              0      0.00%     78.29% # Class of committed instruction
system.cpu.commit.op_class_0::FloatMisc             0      0.00%     78.29% # Class of committed instruction
system.cpu.commit.op_class_0::FloatSqrt             0      0.00%     78.29% # Class of committed instruction
system.cpu.commit.op_class_0::SimdAdd            6270      0.12%     78.40% # Class of committed instruction
system.cpu.commit.op_class_0::SimdAddAcc            0      0.00%     78.40% # Class of committed instruction
system.cpu.commit.op_class_0::SimdAlu           27748      0.51%     78.91% # Class of committed instruction
system.cpu.commit.op_class_0::SimdCmp               0      0.00%     78.91% # Class of committed instruction
system.cpu.commit.op_class_0::SimdCvt           28638      0.53%     79.44% # Class of committed instruction
system.cpu.commit.op_class_0::SimdMisc          43523      0.80%     80.24% # Class of committed instruction
system.cpu.commit.op_class_0::SimdMult              0      0.00%     80.24% # Class of committed instruction
system.cpu.commit.op_class_0::SimdMultAcc            0      0.00%     80.24% # Class of committed instruction
system.cpu.commit.op_class_0::SimdShift          1316      0.02%     80.27% # Class of committed instruction
system.cpu.commit.op_class_0::SimdShiftAcc            0      0.00%     80.27% # Class of committed instruction
system.cpu.commit.op_class_0::SimdDiv               0      0.00%     80.27% # Class of committed instruction
system.cpu.commit.op_class_0::SimdSqrt              0      0.00%     80.27% # Class of committed instruction
system.cpu.commit.op_class_0::SimdFloatAdd            0      0.00%     80.27% # Class of committed instruction
system.cpu.commit.op_class_0::SimdFloatAlu            0      0.00%     80.27% # Class of committed instruction
system.cpu.commit.op_class_0::SimdFloatCmp            0      0.00%     80.27% # Class of committed instruction
system.cpu.commit.op_class_0::SimdFloatCvt            0      0.00%     80.27% # Class of committed instruction
system.cpu.commit.op_class_0::SimdFloatDiv            0      0.00%     80.27% # Class of committed instruction
system.cpu.commit.op_class_0::SimdFloatMisc            0      0.00%     80.27% # Class of committed instruction
system.cpu.commit.op_class_0::SimdFloatMult            0      0.00%     80.27% # Class of committed instruction
system.cpu.commit.op_class_0::SimdFloatMultAcc            0      0.00%     80.27% # Class of committed instruction
system.cpu.commit.op_class_0::SimdFloatSqrt            0      0.00%     80.27% # Class of committed instruction
system.cpu.commit.op_class_0::SimdReduceAdd            0      0.00%     80.27% # Class of committed instruction
system.cpu.commit.op_class_0::SimdReduceAlu            0      0.00%     80.27% # Class of committed instruction
system.cpu.commit.op_class_0::SimdReduceCmp            0      0.00%     80.27% # Class of committed instruction
system.cpu.commit.op_class_0::SimdFloatReduceAdd            0      0.00%     80.27% # Class of committed instruction
system.cpu.commit.op_class_0::SimdFloatReduceCmp            0      0.00%     80.27% # Class of committed instruction
system.cpu.commit.op_class_0::SimdAes               0      0.00%     80.27% # Class of committed instruction
system.cpu.commit.op_class_0::SimdAesMix            0      0.00%     80.27% # Class of committed instruction
system.cpu.commit.op_class_0::SimdSha1Hash            0      0.00%     80.27% # Class of committed instruction
system.cpu.commit.op_class_0::SimdSha1Hash2            0      0.00%     80.27% # Class of committed instruction
system.cpu.commit.op_class_0::SimdSha256Hash            0      0.00%     80.27% # Class of committed instruction
system.cpu.commit.op_class_0::SimdSha256Hash2            0      0.00%     80.27% # Class of committed instruction
system.cpu.commit.op_class_0::SimdShaSigma2            0      0.00%     80.27% # Class of committed instruction
system.cpu.commit.op_class_0::SimdShaSigma3            0      0.00%     80.27% # Class of committed instruction
system.cpu.commit.op_class_0::SimdPredAlu            0      0.00%     80.27% # Class of committed instruction
system.cpu.commit.op_class_0::MemRead          693254     12.76%     93.03% # Class of committed instruction
system.cpu.commit.op_class_0::MemWrite         329906      6.07%     99.11% # Class of committed instruction
system.cpu.commit.op_class_0::FloatMemRead        31670      0.58%     99.69% # Class of committed instruction
system.cpu.commit.op_class_0::FloatMemWrite        16811      0.31%    100.00% # Class of committed instruction
system.cpu.commit.op_class_0::IprAccess             0      0.00%    100.00% # Class of committed instruction
system.cpu.commit.op_class_0::InstPrefetch            0      0.00%    100.00% # Class of committed instruction
system.cpu.commit.op_class_0::total           5430915                       # Class of committed instruction
system.cpu.commit.refs                        1071641                       # Number of memory references committed
system.cpu.commit.swp_count                         0                       # Number of s/w prefetches committed
system.cpu.commit.vec_insts                         0                       # Number of committed Vector instructions.
system.cpu.committedInsts                     2949780                       # Number of Instructions Simulated
system.cpu.committedOps                       5430915                       # Number of Ops (including micro ops) Simulated
system.cpu.cpi                               1.149622                       # CPI: Cycles Per Instruction
system.cpu.cpi_total                         1.149622                       # CPI: Total CPI of All Threads
system.cpu.dcache.prefetcher.num_hwpf_issued         8098                       # number of hwpf issued
system.cpu.dcache.prefetcher.pfBufferHit        33739                       # number of redundant prefetches already in prefetch queue
system.cpu.dcache.prefetcher.pfIdentified        48843                       # number of prefetch candidates identified
system.cpu.dcache.prefetcher.pfInCache              0                       # number of redundant prefetches already in cache/mshr dropped
system.cpu.dcache.prefetcher.pfRemovedFull            0                       # number of prefetches dropped due to prefetch queue size
system.cpu.dcache.prefetcher.pfSpanPage          4525                       # number of prefetches that crossed the page
system.cpu.decode.BlockedCycles               1042114                       # Number of cycles decode is blocked
system.cpu.decode.DecodedInsts                6557855                       # Number of instructions handled by decode
system.cpu.decode.IdleCycles                   423262                       # Number of cycles decode is idle
system.cpu.decode.RunCycles                   1643148                       # Number of cycles decode is running
system.cpu.decode.SquashCycles                  24674                       # Number of cycles decode is squashing
system.cpu.decode.UnblockCycles                 93899                       # Number of cycles decode is unblocking
system.cpu.dtb.rdAccesses                      808982                       # TLB accesses on read requests
system.cpu.dtb.rdMisses                          2044                       # TLB misses on read requests
system.cpu.dtb.wrAccesses                      366618                       # TLB accesses on write requests
system.cpu.dtb.wrMisses                           159                       # TLB misses on write requests
system.cpu.fetch.Branches                      656724                       # Number of branches that fetch encountered
system.cpu.fetch.CacheLines                    351807                       # Number of cache lines fetched
system.cpu.fetch.Cycles                       2757674                       # Number of cycles fetch has run and was not squashing or blocked
system.cpu.fetch.IcacheSquashes                  4695                       # Number of outstanding Icache misses that were squashed
system.cpu.fetch.Insts                        3731014                       # Number of instructions fetch has processed
system.cpu.fetch.MiscStallCycles                  134                       # Number of cycles fetch has spent waiting on interrupts, or bad addresses, or out of MSHRs
system.cpu.fetch.PendingQuiesceStallCycles            6                       # Number of stall cycles due to pending quiesce instructions
system.cpu.fetch.PendingTrapStallCycles           723                       # Number of stall cycles due to pending traps
system.cpu.fetch.SquashCycles                   49348                       # Number of cycles fetch has spent squashing
system.cpu.fetch.branchRate                  0.193659                       # Number of branch fetches per cycle
system.cpu.fetch.icacheStallCycles             443886                       # Number of cycles fetch is stalled on an Icache miss
system.cpu.fetch.predictedBranches             332210                       # Number of branches that fetch has predicted taken
system.cpu.fetch.rate                        1.100227                       # Number of inst fetches per cycle
system.cpu.fetch.rateDist::samples            3227097                       # Number of instructions fetched each cycle (Total)
system.cpu.fetch.rateDist::mean              2.118718                       # Number of instructions fetched each cycle (Total)
system.cpu.fetch.rateDist::stdev             1.918463                       # Number of instructions fetched each cycle (Total)
system.cpu.fetch.rateDist::underflows               0      0.00%      0.00% # Number of instructions fetched each cycle (Total)
system.cpu.fetch.rateDist::0                  1368632     42.41%     42.41% # Number of instructions fetched each cycle (Total)
system.cpu.fetch.rateDist::1                   105763      3.28%     45.69% # Number of instructions fetched each cycle (Total)
system.cpu.fetch.rateDist::2                    84746      2.63%     48.31% # Number of instructions fetched each cycle (Total)
system.cpu.fetch.rateDist::3                   109770      3.40%     51.72% # Number of instructions fetched each cycle (Total)
system.cpu.fetch.rateDist::4                  1558186     48.28%    100.00% # Number of instructions fetched each cycle (Total)
system.cpu.fetch.rateDist::overflows                0      0.00%    100.00% # Number of instructions fetched each cycle (Total)
system.cpu.fetch.rateDist::min_value                0                       # Number of instructions fetched each cycle (Total)
system.cpu.fetch.rateDist::max_value                4                       # Number of instructions fetched each cycle (Total)
system.cpu.fetch.rateDist::total              3227097                       # Number of instructions fetched each cycle (Total)
system.cpu.fp_regfile_reads                    296117                       # number of floating regfile reads
system.cpu.fp_regfile_writes                   158300                       # number of floating regfile writes
system.cpu.fuPool.fu_ticks_busy::IntALU(0)    307436000                       # Total ticks fu was busy
system.cpu.fuPool.fu_ticks_busy::IntALU(1)    307436000                       # Total ticks fu was busy
system.cpu.fuPool.fu_ticks_busy::IntALU(2)    307435600                       # Total ticks fu was busy
system.cpu.fuPool.fu_ticks_busy::IntALU(3)    307435600                       # Total ticks fu was busy
system.cpu.fuPool.fu_ticks_busy::IntALU(4)    307435600                       # Total ticks fu was busy
system.cpu.fuPool.fu_ticks_busy::IntALU(5)    307435600                       # Total ticks fu was busy
system.cpu.fuPool.fu_ticks_busy::IntMultDiv(0)      9466800                       # Total ticks fu was busy
system.cpu.fuPool.fu_ticks_busy::IntMultDiv(1)      9466400                       # Total ticks fu was busy
system.cpu.fuPool.fu_ticks_busy::FP_ALU(0)       997200                       # Total ticks fu was busy
system.cpu.fuPool.fu_ticks_busy::FP_ALU(1)       997200                       # Total ticks fu was busy
system.cpu.fuPool.fu_ticks_busy::FP_ALU(2)       996800                       # Total ticks fu was busy
system.cpu.fuPool.fu_ticks_busy::FP_ALU(3)       996800                       # Total ticks fu was busy
system.cpu.fuPool.fu_ticks_busy::FP_MultDiv(0)            0                       # Total ticks fu was busy
system.cpu.fuPool.fu_ticks_busy::FP_MultDiv(1)            0                       # Total ticks fu was busy
system.cpu.fuPool.fu_ticks_busy::SIMD_Unit(0)     11793200                       # Total ticks fu was busy
system.cpu.fuPool.fu_ticks_busy::SIMD_Unit(1)     11783600                       # Total ticks fu was busy
system.cpu.fuPool.fu_ticks_busy::SIMD_Unit(2)     11149600                       # Total ticks fu was busy
system.cpu.fuPool.fu_ticks_busy::SIMD_Unit(3)     11704400                       # Total ticks fu was busy
system.cpu.fuPool.fu_ticks_busy::PredALU(0)            0                       # Total ticks fu was busy
system.cpu.fuPool.fu_ticks_busy::RdWrPort(0)    118967600                       # Total ticks fu was busy
system.cpu.fuPool.fu_ticks_busy::RdWrPort(1)    119202800                       # Total ticks fu was busy
system.cpu.fuPool.fu_ticks_busy::RdWrPort(2)    118712400                       # Total ticks fu was busy
system.cpu.fuPool.fu_ticks_busy::RdWrPort(3)    119264400                       # Total ticks fu was busy
system.cpu.fuPool.fu_ticks_busy::IprPort(0)            0                       # Total ticks fu was busy
system.cpu.fuPool.fu_ticks_busy::total     2390113600                       # Total ticks fu was busy
system.cpu.icache.prefetcher.num_hwpf_issued            0                       # number of hwpf issued
system.cpu.icache.prefetcher.pfBufferHit            0                       # number of redundant prefetches already in prefetch queue
system.cpu.icache.prefetcher.pfIdentified            0                       # number of prefetch candidates identified
system.cpu.icache.prefetcher.pfInCache              0                       # number of redundant prefetches already in cache/mshr dropped
system.cpu.icache.prefetcher.pfRemovedFull            0                       # number of prefetches dropped due to prefetch queue size
system.cpu.icache.prefetcher.pfSpanPage             0                       # number of prefetches that crossed the page
system.cpu.idleCycles                          164035                       # Total number of cycles that the CPU has spent unscheduled due to idling
system.cpu.iew.branchMispredicts                29021                       # Number of branch mispredicts detected at execute
system.cpu.iew.exec_branches                   541671                       # Number of branches executed
system.cpu.iew.exec_nop                             0                       # number of nop insts executed
system.cpu.iew.exec_rate                     1.762053                       # Inst execution rate
system.cpu.iew.exec_refs                      1177400                       # number of memory reference insts executed
system.cpu.iew.exec_stores                     366604                       # Number of stores executed
system.cpu.iew.exec_swp                             0                       # number of swp insts executed
system.cpu.iew.iewBlockCycles                  695995                       # Number of cycles IEW is blocking
system.cpu.iew.iewDispLoadInsts                841468                       # Number of dispatched load instructions
system.cpu.iew.iewDispNonSpecInsts                959                       # Number of dispatched non-speculative instructions
system.cpu.iew.iewDispSquashedInsts               582                       # Number of squashed instructions skipped by dispatch
system.cpu.iew.iewDispStoreInsts               376886                       # Number of dispatched store instructions
system.cpu.iew.iewDispatchedInsts             6338499                       # Number of instructions dispatched to IQ
system.cpu.iew.iewExecLoadInsts                810796                       # Number of load instructions executed
system.cpu.iew.iewExecSquashedInsts             35106                       # Number of squashed instructions skipped in execute
system.cpu.iew.iewExecutedInsts               5975356                       # Number of executed instructions
system.cpu.iew.iewIQFullEvents                   3378                       # Number of times the IQ has become full, causing a stall
system.cpu.iew.iewIdleCycles                        0                       # Number of cycles IEW is idle
system.cpu.iew.iewLSQFullEvents                 10087                       # Number of times the LSQ has become full, causing a stall
system.cpu.iew.iewSquashCycles                  24674                       # Number of cycles IEW is squashing
system.cpu.iew.iewUnblockCycles                 16440                       # Number of cycles IEW is unblocking
system.cpu.iew.lsq.thread0.blockedLoads             0                       # Number of blocked loads due to partial load-store forwarding
system.cpu.iew.lsq.thread0.cacheBlocked           621                       # Number of times an access to memory failed due to the cache being blocked
system.cpu.iew.lsq.thread0.forwLoads            70356                       # Number of loads that had data forwarded from stores
system.cpu.iew.lsq.thread0.ignoredResponses          230                       # Number of memory responses ignored because the instruction is squashed
system.cpu.iew.lsq.thread0.invAddrLoads             0                       # Number of loads ignored due to an invalid address
system.cpu.iew.lsq.thread0.invAddrSwpfs             0                       # Number of software prefetches ignored due to an invalid address
system.cpu.iew.lsq.thread0.memOrderViolation           88                       # Number of memory ordering violations
system.cpu.iew.lsq.thread0.rescheduledLoads           18                       # Number of loads that were rescheduled
system.cpu.iew.lsq.thread0.squashedLoads       116542                       # Number of loads squashed
system.cpu.iew.lsq.thread0.squashedStores        30168                       # Number of stores squashed
system.cpu.iew.memOrderViolationEvents             88                       # Number of memory order violations
system.cpu.iew.predictedNotTakenIncorrect        20902                       # Number of branches that were predicted not taken incorrectly
system.cpu.iew.predictedTakenIncorrect           8119                       # Number of branches that were predicted taken incorrectly
system.cpu.iew.wb_consumers                   7995774                       # num instructions consuming a value
system.cpu.iew.wb_count                       5953372                       # cumulative count of insts written-back
system.cpu.iew.wb_fanout                     0.576074                       # average fanout of values written-back
system.cpu.iew.wb_producers                   4606161                       # num instructions producing a value
system.cpu.iew.wb_rate                       1.755571                       # insts written-back per cycle
system.cpu.iew.wb_sent                        5960293                       # cumulative count of insts sent to commit
system.cpu.int_regfile_reads                  9161806                       # number of integer regfile reads
system.cpu.int_regfile_writes                 4962877                       # number of integer regfile writes
system.cpu.ipc                               0.869851                       # IPC: Instructions Per Cycle
system.cpu.ipc_total                         0.869851                       # IPC: Total IPC of All Threads
system.cpu.iq.FU_type_0::No_OpClass             35178      0.59%      0.59% # Type of FU issued
system.cpu.iq.FU_type_0::IntAlu               4611538     76.73%     77.31% # Type of FU issued
system.cpu.iq.FU_type_0::IntMult                 5849      0.10%     77.41% # Type of FU issued
system.cpu.iq.FU_type_0::IntDiv                 41484      0.69%     78.10% # Type of FU issued
system.cpu.iq.FU_type_0::FloatAdd                8682      0.14%     78.24% # Type of FU issued
system.cpu.iq.FU_type_0::FloatCmp                   0      0.00%     78.24% # Type of FU issued
system.cpu.iq.FU_type_0::FloatCvt                1288      0.02%     78.26% # Type of FU issued
system.cpu.iq.FU_type_0::FloatMult                  0      0.00%     78.26% # Type of FU issued
system.cpu.iq.FU_type_0::FloatMultAcc               0      0.00%     78.26% # Type of FU issued
system.cpu.iq.FU_type_0::FloatDiv                   0      0.00%     78.26% # Type of FU issued
system.cpu.iq.FU_type_0::FloatMisc                  0      0.00%     78.26% # Type of FU issued
system.cpu.iq.FU_type_0::FloatSqrt                  0      0.00%     78.26% # Type of FU issued
system.cpu.iq.FU_type_0::SimdAdd                 7016      0.12%     78.38% # Type of FU issued
system.cpu.iq.FU_type_0::SimdAddAcc                 0      0.00%     78.38% # Type of FU issued
system.cpu.iq.FU_type_0::SimdAlu                31756      0.53%     78.91% # Type of FU issued
system.cpu.iq.FU_type_0::SimdCmp                    0      0.00%     78.91% # Type of FU issued
system.cpu.iq.FU_type_0::SimdCvt                30602      0.51%     79.42% # Type of FU issued
system.cpu.iq.FU_type_0::SimdMisc               44208      0.74%     80.15% # Type of FU issued
system.cpu.iq.FU_type_0::SimdMult                   0      0.00%     80.15% # Type of FU issued
system.cpu.iq.FU_type_0::SimdMultAcc                0      0.00%     80.15% # Type of FU issued
system.cpu.iq.FU_type_0::SimdShift               2495      0.04%     80.20% # Type of FU issued
system.cpu.iq.FU_type_0::SimdShiftAcc               0      0.00%     80.20% # Type of FU issued
system.cpu.iq.FU_type_0::SimdDiv                    0      0.00%     80.20% # Type of FU issued
system.cpu.iq.FU_type_0::SimdSqrt                   0      0.00%     80.20% # Type of FU issued
system.cpu.iq.FU_type_0::SimdFloatAdd               0      0.00%     80.20% # Type of FU issued
system.cpu.iq.FU_type_0::SimdFloatAlu               0      0.00%     80.20% # Type of FU issued
system.cpu.iq.FU_type_0::SimdFloatCmp               0      0.00%     80.20% # Type of FU issued
system.cpu.iq.FU_type_0::SimdFloatCvt               0      0.00%     80.20% # Type of FU issued
system.cpu.iq.FU_type_0::SimdFloatDiv               0      0.00%     80.20% # Type of FU issued
system.cpu.iq.FU_type_0::SimdFloatMisc              0      0.00%     80.20% # Type of FU issued
system.cpu.iq.FU_type_0::SimdFloatMult              0      0.00%     80.20% # Type of FU issued
system.cpu.iq.FU_type_0::SimdFloatMultAcc            0      0.00%     80.20% # Type of FU issued
system.cpu.iq.FU_type_0::SimdFloatSqrt              0      0.00%     80.20% # Type of FU issued
system.cpu.iq.FU_type_0::SimdReduceAdd              0      0.00%     80.20% # Type of FU issued
system.cpu.iq.FU_type_0::SimdReduceAlu              0      0.00%     80.20% # Type of FU issued
system.cpu.iq.FU_type_0::SimdReduceCmp              0      0.00%     80.20% # Type of FU issued
system.cpu.iq.FU_type_0::SimdFloatReduceAdd            0      0.00%     80.20% # Type of FU issued
system.cpu.iq.FU_type_0::SimdFloatReduceCmp            0      0.00%     80.20% # Type of FU issued
system.cpu.iq.FU_type_0::SimdAes                    0      0.00%     80.20% # Type of FU issued
system.cpu.iq.FU_type_0::SimdAesMix                 0      0.00%     80.20% # Type of FU issued
system.cpu.iq.FU_type_0::SimdSha1Hash               0      0.00%     80.20% # Type of FU issued
system.cpu.iq.FU_type_0::SimdSha1Hash2              0      0.00%     80.20% # Type of FU issued
system.cpu.iq.FU_type_0::SimdSha256Hash             0      0.00%     80.20% # Type of FU issued
system.cpu.iq.FU_type_0::SimdSha256Hash2            0      0.00%     80.20% # Type of FU issued
system.cpu.iq.FU_type_0::SimdShaSigma2              0      0.00%     80.20% # Type of FU issued
system.cpu.iq.FU_type_0::SimdShaSigma3              0      0.00%     80.20% # Type of FU issued
system.cpu.iq.FU_type_0::SimdPredAlu                0      0.00%     80.20% # Type of FU issued
system.cpu.iq.FU_type_0::MemRead               783009     13.03%     93.22% # Type of FU issued
system.cpu.iq.FU_type_0::MemWrite              350992      5.84%     99.06% # Type of FU issued
system.cpu.iq.FU_type_0::FloatMemRead           38181      0.64%     99.70% # Type of FU issued
system.cpu.iq.FU_type_0::FloatMemWrite          18188      0.30%    100.00% # Type of FU issued
system.cpu.iq.FU_type_0::IprAccess                  0      0.00%    100.00% # Type of FU issued
system.cpu.iq.FU_type_0::InstPrefetch               0      0.00%    100.00% # Type of FU issued
system.cpu.iq.FU_type_0::total                6010466                       # Type of FU issued
system.cpu.iq.fp_alu_accesses                  195783                       # Number of floating point alu accesses
system.cpu.iq.fp_inst_queue_reads              393031                       # Number of floating instruction queue reads
system.cpu.iq.fp_inst_queue_wakeup_accesses       192117                       # Number of floating instruction queue wakeup accesses
system.cpu.iq.fp_inst_queue_writes             241411                       # Number of floating instruction queue writes
system.cpu.iq.fu_busy_cnt                           0                       # FU busy when requested
system.cpu.iq.fu_busy_rate                          0                       # FU busy rate (busy events/executed inst)
system.cpu.iq.fu_full::No_OpClass                   0                       # attempts to use FU when none available
system.cpu.iq.fu_full::IntAlu                       0                       # attempts to use FU when none available
system.cpu.iq.fu_full::IntMult                      0                       # attempts to use FU when none available
system.cpu.iq.fu_full::IntDiv                       0                       # attempts to use FU when none available
system.cpu.iq.fu_full::FloatAdd                     0                       # attempts to use FU when none available
system.cpu.iq.fu_full::FloatCmp                     0                       # attempts to use FU when none available
system.cpu.iq.fu_full::FloatCvt                     0                       # attempts to use FU when none available
system.cpu.iq.fu_full::FloatMult                    0                       # attempts to use FU when none available
system.cpu.iq.fu_full::FloatMultAcc                 0                       # attempts to use FU when none available
system.cpu.iq.fu_full::FloatDiv                     0                       # attempts to use FU when none available
system.cpu.iq.fu_full::FloatMisc                    0                       # attempts to use FU when none available
system.cpu.iq.fu_full::FloatSqrt                    0                       # attempts to use FU when none available
system.cpu.iq.fu_full::SimdAdd                      0                       # attempts to use FU when none available
system.cpu.iq.fu_full::SimdAddAcc                   0                       # attempts to use FU when none available
system.cpu.iq.fu_full::SimdAlu                      0                       # attempts to use FU when none available
system.cpu.iq.fu_full::SimdCmp                      0                       # attempts to use FU when none available
system.cpu.iq.fu_full::SimdCvt                      0                       # attempts to use FU when none available
system.cpu.iq.fu_full::SimdMisc                     0                       # attempts to use FU when none available
system.cpu.iq.fu_full::SimdMult                     0                       # attempts to use FU when none available
system.cpu.iq.fu_full::SimdMultAcc                  0                       # attempts to use FU when none available
system.cpu.iq.fu_full::SimdShift                    0                       # attempts to use FU when none available
system.cpu.iq.fu_full::SimdShiftAcc                 0                       # attempts to use FU when none available
system.cpu.iq.fu_full::SimdDiv                      0                       # attempts to use FU when none available
system.cpu.iq.fu_full::SimdSqrt                     0                       # attempts to use FU when none available
system.cpu.iq.fu_full::SimdFloatAdd                 0                       # attempts to use FU when none available
system.cpu.iq.fu_full::SimdFloatAlu                 0                       # attempts to use FU when none available
system.cpu.iq.fu_full::SimdFloatCmp                 0                       # attempts to use FU when none available
system.cpu.iq.fu_full::SimdFloatCvt                 0                       # attempts to use FU when none available
system.cpu.iq.fu_full::SimdFloatDiv                 0                       # attempts to use FU when none available
system.cpu.iq.fu_full::SimdFloatMisc                0                       # attempts to use FU when none available
system.cpu.iq.fu_full::SimdFloatMult                0                       # attempts to use FU when none available
system.cpu.iq.fu_full::SimdFloatMultAcc             0                       # attempts to use FU when none available
system.cpu.iq.fu_full::SimdFloatSqrt                0                       # attempts to use FU when none available
system.cpu.iq.fu_full::SimdReduceAdd                0                       # attempts to use FU when none available
system.cpu.iq.fu_full::SimdReduceAlu                0                       # attempts to use FU when none available
system.cpu.iq.fu_full::SimdReduceCmp                0                       # attempts to use FU when none available
system.cpu.iq.fu_full::SimdFloatReduceAdd            0                       # attempts to use FU when none available
system.cpu.iq.fu_full::SimdFloatReduceCmp            0                       # attempts to use FU when none available
system.cpu.iq.fu_full::SimdAes                      0                       # attempts to use FU when none available
system.cpu.iq.fu_full::SimdAesMix                   0                       # attempts to use FU when none available
system.cpu.iq.fu_full::SimdSha1Hash                 0                       # attempts to use FU when none available
system.cpu.iq.fu_full::SimdSha1Hash2                0                       # attempts to use FU when none available
system.cpu.iq.fu_full::SimdSha256Hash               0                       # attempts to use FU when none available
system.cpu.iq.fu_full::SimdSha256Hash2              0                       # attempts to use FU when none available
system.cpu.iq.fu_full::SimdShaSigma2                0                       # attempts to use FU when none available
system.cpu.iq.fu_full::SimdShaSigma3                0                       # attempts to use FU when none available
system.cpu.iq.fu_full::SimdPredAlu                  0                       # attempts to use FU when none available
system.cpu.iq.fu_full::MemRead                      0                       # attempts to use FU when none available
system.cpu.iq.fu_full::MemWrite                     0                       # attempts to use FU when none available
system.cpu.iq.fu_full::FloatMemRead                 0                       # attempts to use FU when none available
system.cpu.iq.fu_full::FloatMemWrite                0                       # attempts to use FU when none available
system.cpu.iq.fu_full::IprAccess                    0                       # attempts to use FU when none available
system.cpu.iq.fu_full::InstPrefetch                 0                       # attempts to use FU when none available
system.cpu.iq.int_alu_accesses                5779505                       # Number of integer alu accesses
system.cpu.iq.int_inst_queue_reads           14873529                       # Number of integer instruction queue reads
system.cpu.iq.int_inst_queue_wakeup_accesses      5761255                       # Number of integer instruction queue wakeup accesses
system.cpu.iq.int_inst_queue_writes           7004748                       # Number of integer instruction queue writes
system.cpu.iq.iqInstsAdded                    6337353                       # Number of instructions added to the IQ (excludes non-spec)
system.cpu.iq.iqInstsIssued                   6010466                       # Number of instructions issued
system.cpu.iq.iqNonSpecInstsAdded                1146                       # Number of non-speculative instructions added to the IQ
system.cpu.iq.iqSquashedInstsExamined          907573                       # Number of squashed instructions iterated over during squash; mainly for profiling
system.cpu.iq.iqSquashedInstsIssued             18535                       # Number of squashed instructions issued
system.cpu.iq.iqSquashedNonSpecRemoved            386                       # Number of squashed non-spec instructions that were removed
system.cpu.iq.iqSquashedOperandsExamined      1345446                       # Number of squashed operands that are examined and possibly removed from graph
system.cpu.iq.issued_per_cycle::samples       3227097                       # Number of insts issued each cycle
system.cpu.iq.issued_per_cycle::mean         1.862499                       # Number of insts issued each cycle
system.cpu.iq.issued_per_cycle::stdev        1.659908                       # Number of insts issued each cycle
system.cpu.iq.issued_per_cycle::underflows            0      0.00%      0.00% # Number of insts issued each cycle
system.cpu.iq.issued_per_cycle::0             1203897     37.31%     37.31% # Number of insts issued each cycle
system.cpu.iq.issued_per_cycle::1              236056      7.31%     44.62% # Number of insts issued each cycle
system.cpu.iq.issued_per_cycle::2              437445     13.56%     58.18% # Number of insts issued each cycle
system.cpu.iq.issued_per_cycle::3              499276     15.47%     73.65% # Number of insts issued each cycle
system.cpu.iq.issued_per_cycle::4              850423     26.35%    100.00% # Number of insts issued each cycle
system.cpu.iq.issued_per_cycle::overflows            0      0.00%    100.00% # Number of insts issued each cycle
system.cpu.iq.issued_per_cycle::min_value            0                       # Number of insts issued each cycle
system.cpu.iq.issued_per_cycle::max_value            4                       # Number of insts issued each cycle
system.cpu.iq.issued_per_cycle::total         3227097                       # Number of insts issued each cycle
system.cpu.iq.rate                           1.772407                       # Inst issue rate
system.cpu.iq.vec_alu_accesses                      0                       # Number of vector alu accesses
system.cpu.iq.vec_inst_queue_reads                  0                       # Number of vector instruction queue reads
system.cpu.iq.vec_inst_queue_wakeup_accesses            0                       # Number of vector instruction queue wakeup accesses
system.cpu.iq.vec_inst_queue_writes                 0                       # Number of vector instruction queue writes
system.cpu.itb.rdAccesses                           0                       # TLB accesses on read requests
system.cpu.itb.rdMisses                             0                       # TLB misses on read requests
system.cpu.itb.wrAccesses                      351934                       # TLB accesses on write requests
system.cpu.itb.wrMisses                           377                       # TLB misses on write requests
system.cpu.memDep0.conflictingLoads             19364                       # Number of conflicting loads.
system.cpu.memDep0.conflictingStores            12340                       # Number of conflicting stores.
system.cpu.memDep0.insertedLoads               841468                       # Number of loads inserted to the mem dependence unit.
system.cpu.memDep0.insertedStores              376886                       # Number of stores inserted to the mem dependence unit.
system.cpu.misc_regfile_reads                 2310960                       # number of misc regfile reads
system.cpu.misc_regfile_writes                    702                       # number of misc regfile writes
system.cpu.numCycles                          3391132                       # number of cpu cycles simulated
system.cpu.numWorkItemsCompleted                    0                       # number of work items this cpu completed
system.cpu.numWorkItemsStarted                      0                       # number of work items this cpu started
system.cpu.process.numSyscalls                     57                       # Number of system calls
system.cpu.rename.BlockCycles                  844672                       # Number of cycles rename is blocking
system.cpu.rename.CommittedMaps               6944502                       # Number of HB maps that are committed
system.cpu.rename.FullRegisterEvents              168                       # Number of times there has been no free registers
system.cpu.rename.IQFullEvents                  52973                       # Number of times rename has blocked due to IQ full
system.cpu.rename.IdleCycles                   476411                       # Number of cycles rename is idle
system.cpu.rename.LQFullEvents                  16857                       # Number of times rename has blocked due to LQ full
system.cpu.rename.ROBFullEvents                  4178                       # Number of times rename has blocked due to ROB full
system.cpu.rename.RenameLookups              16801958                       # Number of register rename lookups that rename has made
system.cpu.rename.RenamedInsts                6482150                       # Number of instructions processed by rename
system.cpu.rename.RenamedOperands             8372606                       # Number of destination operands rename has renamed
system.cpu.rename.RunCycles                   1674976                       # Number of cycles rename is running
system.cpu.rename.SQFullEvents                  77266                       # Number of times rename has blocked due to SQ full
system.cpu.rename.SquashCycles                  24674                       # Number of cycles rename is squashing
system.cpu.rename.UnblockCycles                185945                       # Number of cycles rename is unblocking
system.cpu.rename.UndoneMaps                  1428078                       # Number of HB maps that are undone due to squashing
system.cpu.rename.fp_rename_lookups            334808                       # Number of floating rename lookups
system.cpu.rename.int_rename_lookups         10126131                       # Number of integer rename lookups
system.cpu.rename.serializeStallCycles          20419                       # count of cycles rename stalled for serializing inst
system.cpu.rename.serializingInsts                899                       # count of serializing insts renamed
system.cpu.rename.skidInsts                    223180                       # count of insts added to the skid buffer
system.cpu.rename.tempSerializingInsts            954                       # count of temporary serializing insts renamed
system.cpu.rob.rob_reads                      8405865                       # The number of ROB reads
system.cpu.rob.rob_writes                    12925218                       # The number of ROB writes
system.cpu.timesIdled                            1631                       # Number of times that the entire CPU went into an idle state and unscheduled itself
system.l2bus.snoop_filter.hit_multi_requests           12                       # Number of requests hitting in the snoop filter with multiple (>1) holders of the requested data.
system.l2bus.snoop_filter.hit_multi_snoops            1                       # Number of snoops hitting in the snoop filter with multiple (>1) holders of the requested data.
system.l2bus.snoop_filter.hit_single_requests        18641                       # Number of requests hitting in the snoop filter with a single holder of the requested data.
system.l2bus.snoop_filter.hit_single_snoops          444                       # Number of snoops hitting in the snoop filter with a single holder of the requested data.
system.l2bus.snoop_filter.tot_requests          38562                       # Total number of requests made to the snoop filter.
system.l2bus.snoop_filter.tot_snoops              445                       # Total number of snoops made to the snoop filter.
system.l2cache.prefetcher.num_hwpf_issued          735                       # number of hwpf issued
system.l2cache.prefetcher.pfBufferHit               0                       # number of redundant prefetches already in prefetch queue
system.l2cache.prefetcher.pfIdentified            735                       # number of prefetch candidates identified
system.l2cache.prefetcher.pfInCache                 0                       # number of redundant prefetches already in cache/mshr dropped
system.l2cache.prefetcher.pfRemovedFull             0                       # number of prefetches dropped due to prefetch queue size
system.l2cache.prefetcher.pfSpanPage              133                       # number of prefetches that crossed the page
system.membus.snoop_filter.hit_multi_requests            0                       # Number of requests hitting in the snoop filter with multiple (>1) holders of the requested data.
system.membus.snoop_filter.hit_multi_snoops            0                       # Number of snoops hitting in the snoop filter with multiple (>1) holders of the requested data.
system.membus.snoop_filter.hit_single_requests         9544                       # Number of requests hitting in the snoop filter with a single holder of the requested data.
system.membus.snoop_filter.hit_single_snoops            0                       # Number of snoops hitting in the snoop filter with a single holder of the requested data.
system.membus.snoop_filter.tot_requests         23208                       # Total number of requests made to the snoop filter.
system.membus.snoop_filter.tot_snoops               0                       # Total number of snoops made to the snoop filter.
system.membus.pwrStateResidencyTicks::UNDEFINED   1356452400                       # Cumulative time (in ticks) in various power states
system.membus.trans_dist::ReadResp              12254                       # Transaction distribution
system.membus.trans_dist::WritebackDirty         1357                       # Transaction distribution
system.membus.trans_dist::CleanEvict             8187                       # Transaction distribution
system.membus.trans_dist::ReadExReq              1410                       # Transaction distribution
system.membus.trans_dist::ReadExResp             1410                       # Transaction distribution
system.membus.trans_dist::ReadSharedReq         12254                       # Transaction distribution
system.membus.pkt_count_system.l2cache.mem_side::system.mem_ctrl.port        36872                       # Packet count per connected master and slave (bytes)
system.membus.pkt_count_system.l2cache.mem_side::total        36872                       # Packet count per connected master and slave (bytes)
system.membus.pkt_count::total                  36872                       # Packet count per connected master and slave (bytes)
system.membus.pkt_size_system.l2cache.mem_side::system.mem_ctrl.port       961344                       # Cumulative packet size per connected master and slave (bytes)
system.membus.pkt_size_system.l2cache.mem_side::total       961344                       # Cumulative packet size per connected master and slave (bytes)
system.membus.pkt_size::total                  961344                       # Cumulative packet size per connected master and slave (bytes)
system.membus.snoops                                0                       # Total snoops (count)
system.membus.snoopTraffic                          0                       # Total snoop traffic (bytes)
system.membus.snoop_fanout::samples             13664                       # Request fanout histogram
system.membus.snoop_fanout::mean                    0                       # Request fanout histogram
system.membus.snoop_fanout::stdev                   0                       # Request fanout histogram
system.membus.snoop_fanout::underflows              0      0.00%      0.00% # Request fanout histogram
system.membus.snoop_fanout::0                   13664    100.00%    100.00% # Request fanout histogram
system.membus.snoop_fanout::1                       0      0.00%    100.00% # Request fanout histogram
system.membus.snoop_fanout::overflows               0      0.00%    100.00% # Request fanout histogram
system.membus.snoop_fanout::min_value               0                       # Request fanout histogram
system.membus.snoop_fanout::max_value               0                       # Request fanout histogram
system.membus.snoop_fanout::total               13664                       # Request fanout histogram
system.membus.reqLayer2.occupancy            11485382                       # Layer occupancy (ticks)
system.membus.reqLayer2.utilization               0.8                       # Layer utilization (%)
system.membus.respLayer0.occupancy           29654218                       # Layer occupancy (ticks)
system.membus.respLayer0.utilization              2.2                       # Layer utilization (%)
system.l2bus.pwrStateResidencyTicks::UNDEFINED   1356452400                       # Cumulative time (in ticks) in various power states
system.l2bus.trans_dist::ReadResp               17750                       # Transaction distribution
system.l2bus.trans_dist::WritebackDirty          4183                       # Transaction distribution
system.l2bus.trans_dist::CleanEvict             24093                       # Transaction distribution
system.l2bus.trans_dist::HardPFReq               1022                       # Transaction distribution
system.l2bus.trans_dist::ReadExReq               2171                       # Transaction distribution
system.l2bus.trans_dist::ReadExResp              2171                       # Transaction distribution
system.l2bus.trans_dist::ReadSharedReq          17750                       # Transaction distribution
system.l2bus.pkt_count_system.cpu.icache.mem_side::system.l2cache.cpu_side         8535                       # Packet count per connected master and slave (bytes)
system.l2bus.pkt_count_system.cpu.dcache.mem_side::system.l2cache.cpu_side        49946                       # Packet count per connected master and slave (bytes)
system.l2bus.pkt_count::total                   58481                       # Packet count per connected master and slave (bytes)
system.l2bus.pkt_size_system.cpu.icache.mem_side::system.l2cache.cpu_side       187456                       # Cumulative packet size per connected master and slave (bytes)
system.l2bus.pkt_size_system.cpu.dcache.mem_side::system.l2cache.cpu_side      1268224                       # Cumulative packet size per connected master and slave (bytes)
system.l2bus.pkt_size::total                  1455680                       # Cumulative packet size per connected master and slave (bytes)
system.l2bus.snoops                             10659                       # Total snoops (count)
system.l2bus.snoopTraffic                       86976                       # Total snoop traffic (bytes)
system.l2bus.snoop_fanout::samples              30578                       # Request fanout histogram
system.l2bus.snoop_fanout::mean              0.014978                       # Request fanout histogram
system.l2bus.snoop_fanout::stdev             0.121736                       # Request fanout histogram
system.l2bus.snoop_fanout::underflows               0      0.00%      0.00% # Request fanout histogram
system.l2bus.snoop_fanout::0                    30121     98.51%     98.51% # Request fanout histogram
system.l2bus.snoop_fanout::1                      456      1.49%    100.00% # Request fanout histogram
system.l2bus.snoop_fanout::2                        1      0.00%    100.00% # Request fanout histogram
system.l2bus.snoop_fanout::overflows                0      0.00%    100.00% # Request fanout histogram
system.l2bus.snoop_fanout::min_value                0                       # Request fanout histogram
system.l2bus.snoop_fanout::max_value                2                       # Request fanout histogram
system.l2bus.snoop_fanout::total                30578                       # Request fanout histogram
system.l2bus.respLayer1.occupancy            20389197                       # Layer occupancy (ticks)
system.l2bus.respLayer1.utilization               1.5                       # Layer utilization (%)
system.l2bus.reqLayer0.occupancy             19095916                       # Layer occupancy (ticks)
system.l2bus.reqLayer0.utilization                1.4                       # Layer utilization (%)
system.l2bus.respLayer0.occupancy             3518397                       # Layer occupancy (ticks)
system.l2bus.respLayer0.utilization               0.3                       # Layer utilization (%)
system.clk_domain.clock                           400                       # Clock period in ticks
system.clk_domain.voltage_domain.voltage            1                       # Voltage in Volts
system.cpu.pwrStateResidencyTicks::ON      1356452400                       # Cumulative time (in ticks) in various power states
system.cpu.icache.pwrStateResidencyTicks::UNDEFINED   1356452400                       # Cumulative time (in ticks) in various power states
system.cpu.icache.demand_hits::.cpu.inst       348151                       # number of demand (read+write) hits
system.cpu.icache.demand_hits::total           348151                       # number of demand (read+write) hits
system.cpu.icache.overall_hits::.cpu.inst       348151                       # number of overall hits
system.cpu.icache.overall_hits::total          348151                       # number of overall hits
system.cpu.icache.demand_misses::.cpu.inst         3655                       # number of demand (read+write) misses
system.cpu.icache.demand_misses::total           3655                       # number of demand (read+write) misses
system.cpu.icache.overall_misses::.cpu.inst         3655                       # number of overall misses
system.cpu.icache.overall_misses::total          3655                       # number of overall misses
system.cpu.icache.demand_miss_latency::.cpu.inst    179670400                       # number of demand (read+write) miss cycles
system.cpu.icache.demand_miss_latency::total    179670400                       # number of demand (read+write) miss cycles
system.cpu.icache.overall_miss_latency::.cpu.inst    179670400                       # number of overall miss cycles
system.cpu.icache.overall_miss_latency::total    179670400                       # number of overall miss cycles
system.cpu.icache.demand_accesses::.cpu.inst       351806                       # number of demand (read+write) accesses
system.cpu.icache.demand_accesses::total       351806                       # number of demand (read+write) accesses
system.cpu.icache.overall_accesses::.cpu.inst       351806                       # number of overall (read+write) accesses
system.cpu.icache.overall_accesses::total       351806                       # number of overall (read+write) accesses
system.cpu.icache.demand_miss_rate::.cpu.inst     0.010389                       # miss rate for demand accesses
system.cpu.icache.demand_miss_rate::total     0.010389                       # miss rate for demand accesses
system.cpu.icache.overall_miss_rate::.cpu.inst     0.010389                       # miss rate for overall accesses
system.cpu.icache.overall_miss_rate::total     0.010389                       # miss rate for overall accesses
system.cpu.icache.demand_avg_miss_latency::.cpu.inst 49157.428181                       # average overall miss latency
system.cpu.icache.demand_avg_miss_latency::total 49157.428181                       # average overall miss latency
system.cpu.icache.overall_avg_miss_latency::.cpu.inst 49157.428181                       # average overall miss latency
system.cpu.icache.overall_avg_miss_latency::total 49157.428181                       # average overall miss latency
system.cpu.icache.blocked_cycles::no_mshrs           39                       # number of cycles access was blocked
system.cpu.icache.blocked_cycles::no_targets            0                       # number of cycles access was blocked
system.cpu.icache.blocked::no_mshrs                 2                       # number of cycles access was blocked
system.cpu.icache.blocked::no_targets               0                       # number of cycles access was blocked
system.cpu.icache.avg_blocked_cycles::no_mshrs    19.500000                       # average number of cycles each access was blocked
system.cpu.icache.avg_blocked_cycles::no_targets          nan                       # average number of cycles each access was blocked
system.cpu.icache.demand_mshr_hits::.cpu.inst          724                       # number of demand (read+write) MSHR hits
system.cpu.icache.demand_mshr_hits::total          724                       # number of demand (read+write) MSHR hits
system.cpu.icache.overall_mshr_hits::.cpu.inst          724                       # number of overall MSHR hits
system.cpu.icache.overall_mshr_hits::total          724                       # number of overall MSHR hits
system.cpu.icache.demand_mshr_misses::.cpu.inst         2931                       # number of demand (read+write) MSHR misses
system.cpu.icache.demand_mshr_misses::total         2931                       # number of demand (read+write) MSHR misses
system.cpu.icache.overall_mshr_misses::.cpu.inst         2931                       # number of overall MSHR misses
system.cpu.icache.overall_mshr_misses::total         2931                       # number of overall MSHR misses
system.cpu.icache.demand_mshr_miss_latency::.cpu.inst    145046000                       # number of demand (read+write) MSHR miss cycles
system.cpu.icache.demand_mshr_miss_latency::total    145046000                       # number of demand (read+write) MSHR miss cycles
system.cpu.icache.overall_mshr_miss_latency::.cpu.inst    145046000                       # number of overall MSHR miss cycles
system.cpu.icache.overall_mshr_miss_latency::total    145046000                       # number of overall MSHR miss cycles
system.cpu.icache.demand_mshr_miss_rate::.cpu.inst     0.008331                       # mshr miss rate for demand accesses
system.cpu.icache.demand_mshr_miss_rate::total     0.008331                       # mshr miss rate for demand accesses
system.cpu.icache.overall_mshr_miss_rate::.cpu.inst     0.008331                       # mshr miss rate for overall accesses
system.cpu.icache.overall_mshr_miss_rate::total     0.008331                       # mshr miss rate for overall accesses
system.cpu.icache.demand_avg_mshr_miss_latency::.cpu.inst 49486.864551                       # average overall mshr miss latency
system.cpu.icache.demand_avg_mshr_miss_latency::total 49486.864551                       # average overall mshr miss latency
system.cpu.icache.overall_avg_mshr_miss_latency::.cpu.inst 49486.864551                       # average overall mshr miss latency
system.cpu.icache.overall_avg_mshr_miss_latency::total 49486.864551                       # average overall mshr miss latency
system.cpu.icache.replacements                   2675                       # number of replacements
system.cpu.icache.ReadReq_hits::.cpu.inst       348151                       # number of ReadReq hits
system.cpu.icache.ReadReq_hits::total          348151                       # number of ReadReq hits
system.cpu.icache.ReadReq_misses::.cpu.inst         3655                       # number of ReadReq misses
system.cpu.icache.ReadReq_misses::total          3655                       # number of ReadReq misses
system.cpu.icache.ReadReq_miss_latency::.cpu.inst    179670400                       # number of ReadReq miss cycles
system.cpu.icache.ReadReq_miss_latency::total    179670400                       # number of ReadReq miss cycles
system.cpu.icache.ReadReq_accesses::.cpu.inst       351806                       # number of ReadReq accesses(hits+misses)
system.cpu.icache.ReadReq_accesses::total       351806                       # number of ReadReq accesses(hits+misses)
system.cpu.icache.ReadReq_miss_rate::.cpu.inst     0.010389                       # miss rate for ReadReq accesses
system.cpu.icache.ReadReq_miss_rate::total     0.010389                       # miss rate for ReadReq accesses
system.cpu.icache.ReadReq_avg_miss_latency::.cpu.inst 49157.428181                       # average ReadReq miss latency
system.cpu.icache.ReadReq_avg_miss_latency::total 49157.428181                       # average ReadReq miss latency
system.cpu.icache.ReadReq_mshr_hits::.cpu.inst          724                       # number of ReadReq MSHR hits
system.cpu.icache.ReadReq_mshr_hits::total          724                       # number of ReadReq MSHR hits
system.cpu.icache.ReadReq_mshr_misses::.cpu.inst         2931                       # number of ReadReq MSHR misses
system.cpu.icache.ReadReq_mshr_misses::total         2931                       # number of ReadReq MSHR misses
system.cpu.icache.ReadReq_mshr_miss_latency::.cpu.inst    145046000                       # number of ReadReq MSHR miss cycles
system.cpu.icache.ReadReq_mshr_miss_latency::total    145046000                       # number of ReadReq MSHR miss cycles
system.cpu.icache.ReadReq_mshr_miss_rate::.cpu.inst     0.008331                       # mshr miss rate for ReadReq accesses
system.cpu.icache.ReadReq_mshr_miss_rate::total     0.008331                       # mshr miss rate for ReadReq accesses
system.cpu.icache.ReadReq_avg_mshr_miss_latency::.cpu.inst 49486.864551                       # average ReadReq mshr miss latency
system.cpu.icache.ReadReq_avg_mshr_miss_latency::total 49486.864551                       # average ReadReq mshr miss latency
system.cpu.icache.prefetcher.pwrStateResidencyTicks::UNDEFINED   1356452400                       # Cumulative time (in ticks) in various power states
system.cpu.icache.tags.pwrStateResidencyTicks::UNDEFINED   1356452400                       # Cumulative time (in ticks) in various power states
system.cpu.icache.tags.tagsinuse           253.960690                       # Cycle average of tags in use
system.cpu.icache.tags.total_refs              298319                       # Total number of references to valid blocks.
system.cpu.icache.tags.sampled_refs              2675                       # Sample count of references to valid blocks.
system.cpu.icache.tags.avg_refs            111.521121                       # Average number of references to valid blocks.
system.cpu.icache.tags.warmup_cycle             66400                       # Cycle when the warmup percentage was hit.
system.cpu.icache.tags.occ_blocks::.cpu.inst   253.960690                       # Average occupied blocks per requestor
system.cpu.icache.tags.occ_percent::.cpu.inst     0.992034                       # Average percentage of cache occupancy
system.cpu.icache.tags.occ_percent::total     0.992034                       # Average percentage of cache occupancy
system.cpu.icache.tags.occ_task_id_blocks::1024          256                       # Occupied blocks per task id
system.cpu.icache.tags.age_task_id_blocks_1024::0           61                       # Occupied blocks per task id
system.cpu.icache.tags.age_task_id_blocks_1024::1           49                       # Occupied blocks per task id
system.cpu.icache.tags.age_task_id_blocks_1024::2          144                       # Occupied blocks per task id
system.cpu.icache.tags.age_task_id_blocks_1024::3            2                       # Occupied blocks per task id
system.cpu.icache.tags.occ_task_id_percent::1024            1                       # Percentage of cache occupancy per task id
system.cpu.icache.tags.tag_accesses            706543                       # Number of tag accesses
system.cpu.icache.tags.data_accesses           706543                       # Number of data accesses
system.cpu.dtb.walker.pwrStateResidencyTicks::UNDEFINED   1356452400                       # Cumulative time (in ticks) in various power states
system.cpu.interrupts.clk_domain.clock           6400                       # Clock period in ticks
system.cpu.itb.walker.pwrStateResidencyTicks::UNDEFINED   1356452400                       # Cumulative time (in ticks) in various power states
system.cpu.dcache.pwrStateResidencyTicks::UNDEFINED   1356452400                       # Cumulative time (in ticks) in various power states
system.cpu.dcache.demand_hits::.cpu.data      1049359                       # number of demand (read+write) hits
system.cpu.dcache.demand_hits::total          1049359                       # number of demand (read+write) hits
system.cpu.dcache.overall_hits::.cpu.data      1049359                       # number of overall hits
system.cpu.dcache.overall_hits::total         1049359                       # number of overall hits
system.cpu.dcache.demand_misses::.cpu.data        34833                       # number of demand (read+write) misses
system.cpu.dcache.demand_misses::total          34833                       # number of demand (read+write) misses
system.cpu.dcache.overall_misses::.cpu.data        34833                       # number of overall misses
system.cpu.dcache.overall_misses::total         34833                       # number of overall misses
system.cpu.dcache.demand_miss_latency::.cpu.data   1683483200                       # number of demand (read+write) miss cycles
system.cpu.dcache.demand_miss_latency::total   1683483200                       # number of demand (read+write) miss cycles
system.cpu.dcache.overall_miss_latency::.cpu.data   1683483200                       # number of overall miss cycles
system.cpu.dcache.overall_miss_latency::total   1683483200                       # number of overall miss cycles
system.cpu.dcache.demand_accesses::.cpu.data      1084192                       # number of demand (read+write) accesses
system.cpu.dcache.demand_accesses::total      1084192                       # number of demand (read+write) accesses
system.cpu.dcache.overall_accesses::.cpu.data      1084192                       # number of overall (read+write) accesses
system.cpu.dcache.overall_accesses::total      1084192                       # number of overall (read+write) accesses
system.cpu.dcache.demand_miss_rate::.cpu.data     0.032128                       # miss rate for demand accesses
system.cpu.dcache.demand_miss_rate::total     0.032128                       # miss rate for demand accesses
system.cpu.dcache.overall_miss_rate::.cpu.data     0.032128                       # miss rate for overall accesses
system.cpu.dcache.overall_miss_rate::total     0.032128                       # miss rate for overall accesses
system.cpu.dcache.demand_avg_miss_latency::.cpu.data 48330.123733                       # average overall miss latency
system.cpu.dcache.demand_avg_miss_latency::total 48330.123733                       # average overall miss latency
system.cpu.dcache.overall_avg_miss_latency::.cpu.data 48330.123733                       # average overall miss latency
system.cpu.dcache.overall_avg_miss_latency::total 48330.123733                       # average overall miss latency
system.cpu.dcache.blocked_cycles::no_mshrs        29309                       # number of cycles access was blocked
system.cpu.dcache.blocked_cycles::no_targets          138                       # number of cycles access was blocked
system.cpu.dcache.blocked::no_mshrs               769                       # number of cycles access was blocked
system.cpu.dcache.blocked::no_targets               1                       # number of cycles access was blocked
system.cpu.dcache.avg_blocked_cycles::no_mshrs    38.113134                       # average number of cycles each access was blocked
system.cpu.dcache.avg_blocked_cycles::no_targets          138                       # average number of cycles each access was blocked
system.cpu.dcache.unused_prefetches              1732                       # number of HardPF blocks evicted w/o reference
system.cpu.dcache.writebacks::.writebacks         2826                       # number of writebacks
system.cpu.dcache.writebacks::total              2826                       # number of writebacks
system.cpu.dcache.demand_mshr_hits::.cpu.data        22158                       # number of demand (read+write) MSHR hits
system.cpu.dcache.demand_mshr_hits::total        22158                       # number of demand (read+write) MSHR hits
system.cpu.dcache.overall_mshr_hits::.cpu.data        22158                       # number of overall MSHR hits
system.cpu.dcache.overall_mshr_hits::total        22158                       # number of overall MSHR hits
system.cpu.dcache.demand_mshr_misses::.cpu.data        12675                       # number of demand (read+write) MSHR misses
system.cpu.dcache.demand_mshr_misses::total        12675                       # number of demand (read+write) MSHR misses
system.cpu.dcache.overall_mshr_misses::.cpu.data        12675                       # number of overall MSHR misses
system.cpu.dcache.overall_mshr_misses::.cpu.dcache.prefetcher         4315                       # number of overall MSHR misses
system.cpu.dcache.overall_mshr_misses::total        16990                       # number of overall MSHR misses
system.cpu.dcache.demand_mshr_miss_latency::.cpu.data    580228000                       # number of demand (read+write) MSHR miss cycles
system.cpu.dcache.demand_mshr_miss_latency::total    580228000                       # number of demand (read+write) MSHR miss cycles
system.cpu.dcache.overall_mshr_miss_latency::.cpu.data    580228000                       # number of overall MSHR miss cycles
system.cpu.dcache.overall_mshr_miss_latency::.cpu.dcache.prefetcher    249109385                       # number of overall MSHR miss cycles
system.cpu.dcache.overall_mshr_miss_latency::total    829337385                       # number of overall MSHR miss cycles
system.cpu.dcache.demand_mshr_miss_rate::.cpu.data     0.011691                       # mshr miss rate for demand accesses
system.cpu.dcache.demand_mshr_miss_rate::total     0.011691                       # mshr miss rate for demand accesses
system.cpu.dcache.overall_mshr_miss_rate::.cpu.data     0.011691                       # mshr miss rate for overall accesses
system.cpu.dcache.overall_mshr_miss_rate::.cpu.dcache.prefetcher          inf                       # mshr miss rate for overall accesses
system.cpu.dcache.overall_mshr_miss_rate::total     0.015671                       # mshr miss rate for overall accesses
system.cpu.dcache.demand_avg_mshr_miss_latency::.cpu.data 45777.357002                       # average overall mshr miss latency
system.cpu.dcache.demand_avg_mshr_miss_latency::total 45777.357002                       # average overall mshr miss latency
system.cpu.dcache.overall_avg_mshr_miss_latency::.cpu.data 45777.357002                       # average overall mshr miss latency
system.cpu.dcache.overall_avg_mshr_miss_latency::.cpu.dcache.prefetcher 57731.027810                       # average overall mshr miss latency
system.cpu.dcache.overall_avg_mshr_miss_latency::total 48813.265745                       # average overall mshr miss latency
system.cpu.dcache.replacements                  15966                       # number of replacements
system.cpu.dcache.ReadReq_hits::.cpu.data       704847                       # number of ReadReq hits
system.cpu.dcache.ReadReq_hits::total          704847                       # number of ReadReq hits
system.cpu.dcache.ReadReq_misses::.cpu.data        32620                       # number of ReadReq misses
system.cpu.dcache.ReadReq_misses::total         32620                       # number of ReadReq misses
system.cpu.dcache.ReadReq_miss_latency::.cpu.data   1573558000                       # number of ReadReq miss cycles
system.cpu.dcache.ReadReq_miss_latency::total   1573558000                       # number of ReadReq miss cycles
system.cpu.dcache.ReadReq_accesses::.cpu.data       737467                       # number of ReadReq accesses(hits+misses)
system.cpu.dcache.ReadReq_accesses::total       737467                       # number of ReadReq accesses(hits+misses)
system.cpu.dcache.ReadReq_miss_rate::.cpu.data     0.044232                       # miss rate for ReadReq accesses
system.cpu.dcache.ReadReq_miss_rate::total     0.044232                       # miss rate for ReadReq accesses
system.cpu.dcache.ReadReq_avg_miss_latency::.cpu.data 48239.055794                       # average ReadReq miss latency
system.cpu.dcache.ReadReq_avg_miss_latency::total 48239.055794                       # average ReadReq miss latency
system.cpu.dcache.ReadReq_mshr_hits::.cpu.data        22114                       # number of ReadReq MSHR hits
system.cpu.dcache.ReadReq_mshr_hits::total        22114                       # number of ReadReq MSHR hits
system.cpu.dcache.ReadReq_mshr_misses::.cpu.data        10506                       # number of ReadReq MSHR misses
system.cpu.dcache.ReadReq_mshr_misses::total        10506                       # number of ReadReq MSHR misses
system.cpu.dcache.ReadReq_mshr_miss_latency::.cpu.data    473728000                       # number of ReadReq MSHR miss cycles
system.cpu.dcache.ReadReq_mshr_miss_latency::total    473728000                       # number of ReadReq MSHR miss cycles
system.cpu.dcache.ReadReq_mshr_miss_rate::.cpu.data     0.014246                       # mshr miss rate for ReadReq accesses
system.cpu.dcache.ReadReq_mshr_miss_rate::total     0.014246                       # mshr miss rate for ReadReq accesses
system.cpu.dcache.ReadReq_avg_mshr_miss_latency::.cpu.data 45091.185989                       # average ReadReq mshr miss latency
system.cpu.dcache.ReadReq_avg_mshr_miss_latency::total 45091.185989                       # average ReadReq mshr miss latency
system.cpu.dcache.WriteReq_hits::.cpu.data       344512                       # number of WriteReq hits
system.cpu.dcache.WriteReq_hits::total         344512                       # number of WriteReq hits
system.cpu.dcache.WriteReq_misses::.cpu.data         2213                       # number of WriteReq misses
system.cpu.dcache.WriteReq_misses::total         2213                       # number of WriteReq misses
system.cpu.dcache.WriteReq_miss_latency::.cpu.data    109925200                       # number of WriteReq miss cycles
system.cpu.dcache.WriteReq_miss_latency::total    109925200                       # number of WriteReq miss cycles
system.cpu.dcache.WriteReq_accesses::.cpu.data       346725                       # number of WriteReq accesses(hits+misses)
system.cpu.dcache.WriteReq_accesses::total       346725                       # number of WriteReq accesses(hits+misses)
system.cpu.dcache.WriteReq_miss_rate::.cpu.data     0.006383                       # miss rate for WriteReq accesses
system.cpu.dcache.WriteReq_miss_rate::total     0.006383                       # miss rate for WriteReq accesses
system.cpu.dcache.WriteReq_avg_miss_latency::.cpu.data 49672.480795                       # average WriteReq miss latency
system.cpu.dcache.WriteReq_avg_miss_latency::total 49672.480795                       # average WriteReq miss latency
system.cpu.dcache.WriteReq_mshr_hits::.cpu.data           44                       # number of WriteReq MSHR hits
system.cpu.dcache.WriteReq_mshr_hits::total           44                       # number of WriteReq MSHR hits
system.cpu.dcache.WriteReq_mshr_misses::.cpu.data         2169                       # number of WriteReq MSHR misses
system.cpu.dcache.WriteReq_mshr_misses::total         2169                       # number of WriteReq MSHR misses
system.cpu.dcache.WriteReq_mshr_miss_latency::.cpu.data    106500000                       # number of WriteReq MSHR miss cycles
[...]
system.l2cache.overall_mshr_miss_latency::total     25691551                       # number of overall MSHR miss cycles
system.l2cache.demand_mshr_miss_rate::.cpu.inst     0.518908                       # mshr miss rate for demand accesses
system.l2cache.demand_mshr_miss_rate::.cpu.data     0.515504                       # mshr miss rate for demand accesses
system.l2cache.demand_mshr_miss_rate::.cpu.dcache.prefetcher     0.681159                       # mshr miss rate for demand accesses
system.l2cache.demand_mshr_miss_rate::total     0.531756                       # mshr miss rate for demand accesses
system.l2cache.overall_mshr_miss_rate::.cpu.inst     0.518908                       # mshr miss rate for overall accesses
system.l2cache.overall_mshr_miss_rate::.cpu.data     0.515504                       # mshr miss rate for overall accesses
system.l2cache.overall_mshr_miss_rate::.cpu.dcache.prefetcher     0.681159                       # mshr miss rate for overall accesses
system.l2cache.overall_mshr_miss_rate::.l2cache.prefetcher          inf                       # mshr miss rate for overall accesses
system.l2cache.overall_mshr_miss_rate::total     0.534247                       # mshr miss rate for overall accesses
system.l2cache.demand_avg_mshr_miss_latency::.cpu.inst 59671.255061                       # average overall mshr miss latency
system.l2cache.demand_avg_mshr_miss_latency::.cpu.data 60592.481203                       # average overall mshr miss latency
system.l2cache.demand_avg_mshr_miss_latency::.cpu.dcache.prefetcher 58952.212766                       # average overall mshr miss latency
system.l2cache.demand_avg_mshr_miss_latency::total 59879.049180                       # average overall mshr miss latency
system.l2cache.overall_avg_mshr_miss_latency::.cpu.inst 59671.255061                       # average overall mshr miss latency
system.l2cache.overall_avg_mshr_miss_latency::.cpu.data 60592.481203                       # average overall mshr miss latency
system.l2cache.overall_avg_mshr_miss_latency::.cpu.dcache.prefetcher 58952.212766                       # average overall mshr miss latency
system.l2cache.overall_avg_mshr_miss_latency::.l2cache.prefetcher 61598.500000                       # average overall mshr miss latency
system.l2cache.overall_avg_mshr_miss_latency::total 59887.065268                       # average overall mshr miss latency
system.l2cache.replacements                       438                       # number of replacements
system.l2cache.WritebackDirty_hits::.writebacks          125                       # number of WritebackDirty hits
system.l2cache.WritebackDirty_hits::total          125                       # number of WritebackDirty hits
system.l2cache.WritebackDirty_accesses::.writebacks          125                       # number of WritebackDirty accesses(hits+misses)
system.l2cache.WritebackDirty_accesses::total          125                       # number of WritebackDirty accesses(hits+misses)
system.l2cache.CleanEvict_mshr_misses::.writebacks            7                       # number of CleanEvict MSHR misses
system.l2cache.CleanEvict_mshr_misses::total            7                       # number of CleanEvict MSHR misses
system.l2cache.CleanEvict_mshr_miss_rate::.writebacks          inf                       # mshr miss rate for CleanEvict accesses
system.l2cache.CleanEvict_mshr_miss_rate::total          inf                       # mshr miss rate for CleanEvict accesses
system.l2cache.HardPFReq_mshr_misses::.l2cache.prefetcher            2                       # number of HardPFReq MSHR misses
system.l2cache.HardPFReq_mshr_misses::total            2                       # number of HardPFReq MSHR misses
system.l2cache.HardPFReq_mshr_miss_latency::.l2cache.prefetcher       123197                       # number of HardPFReq MSHR miss cycles
system.l2cache.HardPFReq_mshr_miss_latency::total       123197                       # number of HardPFReq MSHR miss cycles
system.l2cache.HardPFReq_mshr_miss_rate::.l2cache.prefetcher          inf                       # mshr miss rate for HardPFReq accesses
system.l2cache.HardPFReq_mshr_miss_rate::total          inf                       # mshr miss rate for HardPFReq accesses
system.l2cache.HardPFReq_avg_mshr_miss_latency::.l2cache.prefetcher 61598.500000                       # average HardPFReq mshr miss latency
system.l2cache.HardPFReq_avg_mshr_miss_latency::total 61598.500000                       # average HardPFReq mshr miss latency
system.l2cache.ReadExReq_hits::.cpu.data            7                       # number of ReadExReq hits
system.l2cache.ReadExReq_hits::total                7                       # number of ReadExReq hits
system.l2cache.ReadExReq_misses::.cpu.data           15                       # number of ReadExReq misses
system.l2cache.ReadExReq_misses::total             15                       # number of ReadExReq misses
system.l2cache.ReadExReq_miss_latency::.cpu.data      1129600                       # number of ReadExReq miss cycles
system.l2cache.ReadExReq_miss_latency::total      1129600                       # number of ReadExReq miss cycles
system.l2cache.ReadExReq_accesses::.cpu.data           22                       # number of ReadExReq accesses(hits+misses)
system.l2cache.ReadExReq_accesses::total           22                       # number of ReadExReq accesses(hits+misses)
system.l2cache.ReadExReq_miss_rate::.cpu.data     0.681818                       # miss rate for ReadExReq accesses
system.l2cache.ReadExReq_miss_rate::total     0.681818                       # miss rate for ReadExReq accesses
system.l2cache.ReadExReq_avg_miss_latency::.cpu.data 75306.666667                       # average ReadExReq miss latency
system.l2cache.ReadExReq_avg_miss_latency::total 75306.666667                       # average ReadExReq miss latency
system.l2cache.ReadExReq_mshr_misses::.cpu.data           15                       # number of ReadExReq MSHR misses
system.l2cache.ReadExReq_mshr_misses::total           15                       # number of ReadExReq MSHR misses
system.l2cache.ReadExReq_mshr_miss_latency::.cpu.data      1009600                       # number of ReadExReq MSHR miss cycles
system.l2cache.ReadExReq_mshr_miss_latency::total      1009600                       # number of ReadExReq MSHR miss cycles
system.l2cache.ReadExReq_mshr_miss_rate::.cpu.data     0.681818                       # mshr miss rate for ReadExReq accesses
system.l2cache.ReadExReq_mshr_miss_rate::total     0.681818                       # mshr miss rate for ReadExReq accesses
system.l2cache.ReadExReq_avg_mshr_miss_latency::.cpu.data 67306.666667                       # average ReadExReq mshr miss latency
system.l2cache.ReadExReq_avg_mshr_miss_latency::total 67306.666667                       # average ReadExReq mshr miss latency
system.l2cache.ReadSharedReq_hits::.cpu.inst          229                       # number of ReadSharedReq hits
system.l2cache.ReadSharedReq_hits::.cpu.data          118                       # number of ReadSharedReq hits
system.l2cache.ReadSharedReq_hits::.cpu.dcache.prefetcher           22                       # number of ReadSharedReq hits
system.l2cache.ReadSharedReq_hits::total          369                       # number of ReadSharedReq hits
system.l2cache.ReadSharedReq_misses::.cpu.inst          247                       # number of ReadSharedReq misses
system.l2cache.ReadSharedReq_misses::.cpu.data          118                       # number of ReadSharedReq misses
system.l2cache.ReadSharedReq_misses::.cpu.dcache.prefetcher           47                       # number of ReadSharedReq misses
system.l2cache.ReadSharedReq_misses::total          412                       # number of ReadSharedReq misses
system.l2cache.ReadSharedReq_miss_latency::.cpu.inst     16706800                       # number of ReadSharedReq miss cycles
system.l2cache.ReadSharedReq_miss_latency::.cpu.data      7993200                       # number of ReadSharedReq miss cycles
system.l2cache.ReadSharedReq_miss_latency::.cpu.dcache.prefetcher      3146754                       # number of ReadSharedReq miss cycles
system.l2cache.ReadSharedReq_miss_latency::total     27846754                       # number of ReadSharedReq miss cycles
system.l2cache.ReadSharedReq_accesses::.cpu.inst          476                       # number of ReadSharedReq accesses(hits+misses)
system.l2cache.ReadSharedReq_accesses::.cpu.data          236                       # number of ReadSharedReq accesses(hits+misses)
system.l2cache.ReadSharedReq_accesses::.cpu.dcache.prefetcher           69                       # number of ReadSharedReq accesses(hits+misses)
system.l2cache.ReadSharedReq_accesses::total          781                       # number of ReadSharedReq accesses(hits+misses)
system.l2cache.ReadSharedReq_miss_rate::.cpu.inst     0.518908                       # miss rate for ReadSharedReq accesses
system.l2cache.ReadSharedReq_miss_rate::.cpu.data     0.500000                       # miss rate for ReadSharedReq accesses
system.l2cache.ReadSharedReq_miss_rate::.cpu.dcache.prefetcher     0.681159                       # miss rate for ReadSharedReq accesses
system.l2cache.ReadSharedReq_miss_rate::total     0.527529                       # miss rate for ReadSharedReq accesses
system.l2cache.ReadSharedReq_avg_miss_latency::.cpu.inst 67638.866397                       # average ReadSharedReq miss latency
system.l2cache.ReadSharedReq_avg_miss_latency::.cpu.data 67738.983051                       # average ReadSharedReq miss latency
system.l2cache.ReadSharedReq_avg_miss_latency::.cpu.dcache.prefetcher 66952.212766                       # average ReadSharedReq miss latency
system.l2cache.ReadSharedReq_avg_miss_latency::total 67589.208738                       # average ReadSharedReq miss latency
system.l2cache.ReadSharedReq_mshr_misses::.cpu.inst          247                       # number of ReadSharedReq MSHR misses
system.l2cache.ReadSharedReq_mshr_misses::.cpu.data          118                       # number of ReadSharedReq MSHR misses
system.l2cache.ReadSharedReq_mshr_misses::.cpu.dcache.prefetcher           47                       # number of ReadSharedReq MSHR misses
system.l2cache.ReadSharedReq_mshr_misses::total          412                       # number of ReadSharedReq MSHR misses
system.l2cache.ReadSharedReq_mshr_miss_latency::.cpu.inst     14738800                       # number of ReadSharedReq MSHR miss cycles
system.l2cache.ReadSharedReq_mshr_miss_latency::.cpu.data      7049200                       # number of ReadSharedReq MSHR miss cycles
system.l2cache.ReadSharedReq_mshr_miss_latency::.cpu.dcache.prefetcher      2770754                       # number of ReadSharedReq MSHR miss cycles
system.l2cache.ReadSharedReq_mshr_miss_latency::total     24558754                       # number of ReadSharedReq MSHR miss cycles
system.l2cache.ReadSharedReq_mshr_miss_rate::.cpu.inst     0.518908                       # mshr miss rate for ReadSharedReq accesses
system.l2cache.ReadSharedReq_mshr_miss_rate::.cpu.data     0.500000                       # mshr miss rate for ReadSharedReq accesses
system.l2cache.ReadSharedReq_mshr_miss_rate::.cpu.dcache.prefetcher     0.681159                       # mshr miss rate for ReadSharedReq accesses
system.l2cache.ReadSharedReq_mshr_miss_rate::total     0.527529                       # mshr miss rate for ReadSharedReq accesses
system.l2cache.ReadSharedReq_avg_mshr_miss_latency::.cpu.inst 59671.255061                       # average ReadSharedReq mshr miss latency
system.l2cache.ReadSharedReq_avg_mshr_miss_latency::.cpu.data 59738.983051                       # average ReadSharedReq mshr miss latency
system.l2cache.ReadSharedReq_avg_mshr_miss_latency::.cpu.dcache.prefetcher 58952.212766                       # average ReadSharedReq mshr miss latency
system.l2cache.ReadSharedReq_avg_mshr_miss_latency::total 59608.626214                       # average ReadSharedReq mshr miss latency
system.l2cache.prefetcher.pwrStateResidencyTicks::UNDEFINED     30900000                       # Cumulative time (in ticks) in various power states
system.l2cache.tags.pwrStateResidencyTicks::UNDEFINED     30900000                       # Cumulative time (in ticks) in various power states
system.l2cache.tags.tagsinuse                    4096                       # Cycle average of tags in use
system.l2cache.tags.total_refs                  14004                       # Total number of references to valid blocks.
system.l2cache.tags.sampled_refs                 4534                       # Sample count of references to valid blocks.
system.l2cache.tags.avg_refs                 3.088663                       # Average number of references to valid blocks.
system.l2cache.tags.warmup_cycle                    0                       # Cycle when the warmup percentage was hit.
system.l2cache.tags.occ_blocks::.writebacks    42.569346                       # Average occupied blocks per requestor
system.l2cache.tags.occ_blocks::.cpu.inst  1113.807369                       # Average occupied blocks per requestor
system.l2cache.tags.occ_blocks::.cpu.data  1819.830354                       # Average occupied blocks per requestor
system.l2cache.tags.occ_blocks::.cpu.dcache.prefetcher   976.990393                       # Average occupied blocks per requestor
system.l2cache.tags.occ_blocks::.l2cache.prefetcher   142.802537                       # Average occupied blocks per requestor
system.l2cache.tags.occ_percent::.writebacks     0.010393                       # Average percentage of cache occupancy
system.l2cache.tags.occ_percent::.cpu.inst     0.271926                       # Average percentage of cache occupancy
system.l2cache.tags.occ_percent::.cpu.data     0.444295                       # Average percentage of cache occupancy
system.l2cache.tags.occ_percent::.cpu.dcache.prefetcher     0.238523                       # Average percentage of cache occupancy
system.l2cache.tags.occ_percent::.l2cache.prefetcher     0.034864                       # Average percentage of cache occupancy
system.l2cache.tags.occ_percent::total              1                       # Average percentage of cache occupancy
system.l2cache.tags.occ_task_id_blocks::1022         1068                       # Occupied blocks per task id
system.l2cache.tags.occ_task_id_blocks::1024         3028                       # Occupied blocks per task id
system.l2cache.tags.age_task_id_blocks_1022::0           11                       # Occupied blocks per task id
system.l2cache.tags.age_task_id_blocks_1022::1           64                       # Occupied blocks per task id
system.l2cache.tags.age_task_id_blocks_1022::2          952                       # Occupied blocks per task id
system.l2cache.tags.age_task_id_blocks_1022::3           41                       # Occupied blocks per task id
system.l2cache.tags.age_task_id_blocks_1024::0          180                       # Occupied blocks per task id
system.l2cache.tags.age_task_id_blocks_1024::1          364                       # Occupied blocks per task id
system.l2cache.tags.age_task_id_blocks_1024::2         2289                       # Occupied blocks per task id
system.l2cache.tags.age_task_id_blocks_1024::3          195                       # Occupied blocks per task id
system.l2cache.tags.occ_task_id_percent::1022     0.260742                       # Percentage of cache occupancy per task id
system.l2cache.tags.occ_task_id_percent::1024     0.739258                       # Percentage of cache occupancy per task id
system.l2cache.tags.tag_accesses                13270                       # Number of tag accesses
system.l2cache.tags.data_accesses               13270                       # Number of data accesses
system.mem_ctrl.pwrStateResidencyTicks::UNDEFINED     30900000                       # Cumulative time (in ticks) in various power states
system.mem_ctrl.bytes_read::.cpu.inst           15744                       # Number of bytes read from this memory
system.mem_ctrl.bytes_read::.cpu.data            8512                       # Number of bytes read from this memory
system.mem_ctrl.bytes_read::.cpu.dcache.prefetcher         3008                       # Number of bytes read from this memory
system.mem_ctrl.bytes_read::.l2cache.prefetcher          128                       # Number of bytes read from this memory
system.mem_ctrl.bytes_read::total               27392                       # Number of bytes read from this memory
system.mem_ctrl.bytes_inst_read::.cpu.inst        15744                       # Number of instructions bytes read from this memory
system.mem_ctrl.bytes_inst_read::total          15744                       # Number of instructions bytes read from this memory
system.mem_ctrl.bytes_written::.writebacks         2048                       # Number of bytes written to this memory
system.mem_ctrl.bytes_written::total             2048                       # Number of bytes written to this memory
system.mem_ctrl.num_reads::.cpu.inst              246                       # Number of read requests responded to by this memory
system.mem_ctrl.num_reads::.cpu.data              133                       # Number of read requests responded to by this memory
system.mem_ctrl.num_reads::.cpu.dcache.prefetcher           47                       # Number of read requests responded to by this memory
system.mem_ctrl.num_reads::.l2cache.prefetcher            2                       # Number of read requests responded to by this memory
system.mem_ctrl.num_reads::total                  428                       # Number of read requests responded to by this memory
system.mem_ctrl.num_writes::.writebacks            32                       # Number of write requests responded to by this memory
system.mem_ctrl.num_writes::total                  32                       # Number of write requests responded to by this memory
system.mem_ctrl.bw_read::.cpu.inst          509514563                       # Total read bandwidth from this memory (bytes/s)
system.mem_ctrl.bw_read::.cpu.data          275469256                       # Total read bandwidth from this memory (bytes/s)
system.mem_ctrl.bw_read::.cpu.dcache.prefetcher     97346278                       # Total read bandwidth from this memory (bytes/s)
system.mem_ctrl.bw_read::.l2cache.prefetcher      4142395                       # Total read bandwidth from this memory (bytes/s)
system.mem_ctrl.bw_read::total              886472492                       # Total read bandwidth from this memory (bytes/s)
system.mem_ctrl.bw_inst_read::.cpu.inst     509514563                       # Instruction read bandwidth from this memory (bytes/s)
system.mem_ctrl.bw_inst_read::total         509514563                       # Instruction read bandwidth from this memory (bytes/s)
system.mem_ctrl.bw_write::.writebacks        66278317                       # Write bandwidth from this memory (bytes/s)
system.mem_ctrl.bw_write::total              66278317                       # Write bandwidth from this memory (bytes/s)
system.mem_ctrl.bw_total::.writebacks        66278317                       # Total bandwidth to/from this memory (bytes/s)
system.mem_ctrl.bw_total::.cpu.inst         509514563                       # Total bandwidth to/from this memory (bytes/s)
system.mem_ctrl.bw_total::.cpu.data         275469256                       # Total bandwidth to/from this memory (bytes/s)
system.mem_ctrl.bw_total::.cpu.dcache.prefetcher     97346278                       # Total bandwidth to/from this memory (bytes/s)
system.mem_ctrl.bw_total::.l2cache.prefetcher      4142395                       # Total bandwidth to/from this memory (bytes/s)
system.mem_ctrl.bw_total::total             952750809                       # Total bandwidth to/from this memory (bytes/s)

---------- End Simulation Statistics   ----------
