
---------- Begin Simulation Statistics ----------
final_tick                                 1101454000                       # Number of ticks from beginning of simulation (restored from checkpoints and never reset)
host_inst_rate                                 166172                       # Simulator instruction rate (inst/s)
host_mem_usage                                4406828                       # Number of bytes of host memory used
host_op_rate                                   289414                       # Simulator op (including micro ops) rate (op/s)
host_seconds                                    12.59                       # Real time elapsed on the host
host_tick_rate                               87480977                       # Simulator tick rate (ticks/s)
sim_freq                                 1000000000000                       # Frequency of simulated ticks
sim_insts                                     2092220                       # Number of instructions simulated
sim_ops                                       3643945                       # Number of ops (including micro ops) simulated
sim_seconds                                  0.001101                       # Number of seconds simulated
sim_ticks                                  1101454000                       # Number of ticks simulated
system.cpu.branchPred.BTBCorrect                    0                       # Number of correct BTB predictions (this stat may not work properly.
system.cpu.branchPred.BTBHitPct              0.000000                       # BTB Hit Percentage
system.cpu.branchPred.BTBHits                       0                       # Number of BTB hits
system.cpu.branchPred.BTBLookups               436522                       # Number of BTB lookups
system.cpu.branchPred.RASInCorrect                  8                       # Number of incorrect RAS predictions.
system.cpu.branchPred.condIncorrect             24231                       # Number of conditional branches incorrect
system.cpu.branchPred.condPredicted            467411                       # Number of conditional branches predicted
system.cpu.branchPred.indirectHits             240697                       # Number of indirect target hits.
system.cpu.branchPred.indirectLookups          436522                       # Number of indirect predictor lookups.
system.cpu.branchPred.indirectMisses           195825                       # Number of indirect misses.
system.cpu.branchPred.lookups                  494321                       # Number of BP lookups
system.cpu.branchPred.usedRAS                   11708                       # Number of times the RAS was used to get a target.
system.cpu.branchPredindirectMispredicted        12015                       # Number of mispredicted indirect branches.
system.cpu.cc_regfile_reads                   2397968                       # number of cc regfile reads
system.cpu.cc_regfile_writes                  1952957                       # number of cc regfile writes
system.cpu.commit.amos                              0                       # Number of atomic instructions committed
system.cpu.commit.branchMispredicts             24365                       # The number of times a branch was mispredicted
system.cpu.commit.branches                     350200                       # Number of branches committed
system.cpu.commit.bw_lim_events                603241                       # number cycles where commit BW limit reached
system.cpu.commit.commitNonSpecStalls             751                       # The number of times commit has been forced to stall to communicate backwards
system.cpu.commit.commitSquashedInsts          889037                       # The number of squashed insts skipped by commit
system.cpu.commit.committedInsts              2092220                       # Number of instructions committed
system.cpu.commit.committedOps                3643945                       # Number of ops (including micro ops) committed
system.cpu.commit.committed_per_cycle::samples      2353865                       # Number of insts commited each cycle
system.cpu.commit.committed_per_cycle::mean     1.548069                       # Number of insts commited each cycle
system.cpu.commit.committed_per_cycle::stdev     1.723037                       # Number of insts commited each cycle
system.cpu.commit.committed_per_cycle::underflows            0      0.00%      0.00% # Number of insts commited each cycle
system.cpu.commit.committed_per_cycle::0      1159696     49.27%     49.27% # Number of insts commited each cycle
system.cpu.commit.committed_per_cycle::1       184084      7.82%     57.09% # Number of insts commited each cycle
system.cpu.commit.committed_per_cycle::2       173635      7.38%     64.46% # Number of insts commited each cycle
system.cpu.commit.committed_per_cycle::3       233209      9.91%     74.37% # Number of insts commited each cycle
system.cpu.commit.committed_per_cycle::4       603241     25.63%    100.00% # Number of insts commited each cycle
system.cpu.commit.committed_per_cycle::overflows            0      0.00%    100.00% # Number of insts commited each cycle
system.cpu.commit.committed_per_cycle::min_value            0                       # Number of insts commited each cycle
system.cpu.commit.committed_per_cycle::max_value            4                       # Number of insts commited each cycle
system.cpu.commit.committed_per_cycle::total      2353865                       # Number of insts commited each cycle
system.cpu.commit.fp_insts                      76586                       # Number of committed floating point instructions.
system.cpu.commit.function_calls                 9831                       # Number of function calls committed.
system.cpu.commit.int_insts                   3586870                       # Number of committed integer instructions.
system.cpu.commit.loads                        498156                       # Number of loads committed
system.cpu.commit.membars                           1                       # Number of memory barriers committed
system.cpu.commit.op_class_0::No_OpClass        20504      0.56%      0.56% # Class of committed instruction
system.cpu.commit.op_class_0::IntAlu          2865820     78.65%     79.21% # Class of committed instruction
system.cpu.commit.op_class_0::IntMult            1965      0.05%     79.26% # Class of committed instruction
system.cpu.commit.op_class_0::IntDiv            37399      1.03%     80.29% # Class of committed instruction
system.cpu.commit.op_class_0::FloatAdd           2981      0.08%     80.37% # Class of committed instruction
system.cpu.commit.op_class_0::FloatCmp              0      0.00%     80.37% # Class of committed instruction
system.cpu.commit.op_class_0::FloatCvt           1232      0.03%     80.40% # Class of committed instruction
system.cpu.commit.op_class_0::FloatMult             0      0.00%     80.40% # Class of committed instruction
system.cpu.commit.op_class_0::FloatMultAcc            0      0.00%     80.40% # Class of committed instruction
system.cpu.commit.op_class_0::FloatDiv              0      0.00%     80.40% # Class of committed instruction
system.cpu.commit.op_class_0::FloatMisc             0      0.00%     80.40% # Class of committed instruction
system.cpu.commit.op_class_0::FloatSqrt             0      0.00%     80.40% # Class of committed instruction
system.cpu.commit.op_class_0::SimdAdd            6216      0.17%     80.58% # Class of committed instruction
system.cpu.commit.op_class_0::SimdAddAcc            0      0.00%     80.58% # Class of committed instruction
system.cpu.commit.op_class_0::SimdAlu           11694      0.32%     80.90% # Class of committed instruction
system.cpu.commit.op_class_0::SimdCmp               0      0.00%     80.90% # Class of committed instruction
system.cpu.commit.op_class_0::SimdCvt           12638      0.35%     81.24% # Class of committed instruction
system.cpu.commit.op_class_0::SimdMisc           7690      0.21%     81.45% # Class of committed instruction
system.cpu.commit.op_class_0::SimdMult              0      0.00%     81.45% # Class of committed instruction
system.cpu.commit.op_class_0::SimdMultAcc            0      0.00%     81.45% # Class of committed instruction
system.cpu.commit.op_class_0::SimdShift          1112      0.03%     81.48% # Class of committed instruction
system.cpu.commit.op_class_0::SimdShiftAcc            0      0.00%     81.48% # Class of committed instruction
system.cpu.commit.op_class_0::SimdDiv               0      0.00%     81.48% # Class of committed instruction
system.cpu.commit.op_class_0::SimdSqrt              0      0.00%     81.48% # Class of committed instruction
system.cpu.commit.op_class_0::SimdFloatAdd            0      0.00%     81.48% # Class of committed instruction
system.cpu.commit.op_class_0::SimdFloatAlu            0      0.00%     81.48% # Class of committed instruction
system.cpu.commit.op_class_0::SimdFloatCmp            0      0.00%     81.48% # Class of committed instruction
system.cpu.commit.op_class_0::SimdFloatCvt            0      0.00%     81.48% # Class of committed instruction
system.cpu.commit.op_class_0::SimdFloatDiv            0      0.00%     81.48% # Class of committed instruction
system.cpu.commit.op_class_0::SimdFloatMisc            0      0.00%     81.48% # Class of committed instruction
system.cpu.commit.op_class_0::SimdFloatMult            0      0.00%     81.48% # Class of committed instruction
system.cpu.commit.op_class_0::SimdFloatMultAcc            0      0.00%     81.48% # Class of committed instruction
system.cpu.commit.op_class_0::SimdFloatSqrt            0      0.00%     81.48% # Class of committed instruction
system.cpu.commit.op_class_0::SimdReduceAdd            0      0.00%     81.48% # Class of committed instruction
system.cpu.commit.op_class_0::SimdReduceAlu            0      0.00%     81.48% # Class of committed instruction
system.cpu.commit.op_class_0::SimdReduceCmp            0      0.00%     81.48% # Class of committed instruction
system.cpu.commit.op_class_0::SimdFloatReduceAdd            0      0.00%     81.48% # Class of committed instruction
system.cpu.commit.op_class_0::SimdFloatReduceCmp            0      0.00%     81.48% # Class of committed instruction
system.cpu.commit.op_class_0::SimdAes               0      0.00%     81.48% # Class of committed instruction
system.cpu.commit.op_class_0::SimdAesMix            0      0.00%     81.48% # Class of committed instruction
system.cpu.commit.op_class_0::SimdSha1Hash            0      0.00%     81.48% # Class of committed instruction
system.cpu.commit.op_class_0::SimdSha1Hash2            0      0.00%     81.48% # Class of committed instruction
system.cpu.commit.op_class_0::SimdSha256Hash            0      0.00%     81.48% # Class of committed instruction
system.cpu.commit.op_class_0::SimdSha256Hash2            0      0.00%     81.48% # Class of committed instruction
system.cpu.commit.op_class_0::SimdShaSigma2            0      0.00%     81.48% # Class of committed instruction
system.cpu.commit.op_class_0::SimdShaSigma3            0      0.00%     81.48% # Class of committed instruction
system.cpu.commit.op_class_0::SimdPredAlu            0      0.00%     81.48% # Class of committed instruction
system.cpu.commit.op_class_0::MemRead          478594     13.13%     94.62% # Class of committed instruction
system.cpu.commit.op_class_0::MemWrite         164261      4.51%     99.13% # Class of committed instruction
system.cpu.commit.op_class_0::FloatMemRead        19562      0.54%     99.66% # Class of committed instruction
system.cpu.commit.op_class_0::FloatMemWrite        12277      0.34%    100.00% # Class of committed instruction
system.cpu.commit.op_class_0::IprAccess             0      0.00%    100.00% # Class of committed instruction
system.cpu.commit.op_class_0::InstPrefetch            0      0.00%    100.00% # Class of committed instruction
system.cpu.commit.op_class_0::total           3643945                       # Class of committed instruction
system.cpu.commit.refs                         674694                       # Number of memory references committed
system.cpu.commit.swp_count                         0                       # Number of s/w prefetches committed
system.cpu.commit.vec_insts                         0                       # Number of committed Vector instructions.
system.cpu.committedInsts                     2092220                       # Number of Instructions Simulated
system.cpu.committedOps                       3643945                       # Number of Ops (including micro ops) Simulated
system.cpu.cpi                               1.316131                       # CPI: Cycles Per Instruction
system.cpu.cpi_total                         1.316131                       # CPI: Total CPI of All Threads
system.cpu.dcache.prefetcher.num_hwpf_issued         8250                       # number of hwpf issued
system.cpu.dcache.prefetcher.pfBufferHit        33417                       # number of redundant prefetches already in prefetch queue
system.cpu.dcache.prefetcher.pfIdentified        49372                       # number of prefetch candidates identified
system.cpu.dcache.prefetcher.pfInCache              0                       # number of redundant prefetches already in cache/mshr dropped
system.cpu.dcache.prefetcher.pfRemovedFull            0                       # number of prefetches dropped due to prefetch queue size
system.cpu.dcache.prefetcher.pfSpanPage          4680                       # number of prefetches that crossed the page
system.cpu.decode.BlockedCycles               1027287                       # Number of cycles decode is blocked
system.cpu.decode.DecodedInsts                4749372                       # Number of instructions handled by decode
system.cpu.decode.IdleCycles                   300095                       # Number of cycles decode is idle
system.cpu.decode.RunCycles                   1155299                       # Number of cycles decode is running
system.cpu.decode.SquashCycles                  24442                       # Number of cycles decode is squashing
system.cpu.decode.UnblockCycles                 89101                       # Number of cycles decode is unblocking
system.cpu.dtb.rdAccesses                      581556                       # TLB accesses on read requests
system.cpu.dtb.rdMisses                          2113                       # TLB misses on read requests
system.cpu.dtb.wrAccesses                      195825                       # TLB accesses on write requests
system.cpu.dtb.wrMisses                           150                       # TLB misses on write requests
system.cpu.fetch.Branches                      494321                       # Number of branches that fetch encountered
system.cpu.fetch.CacheLines                    244559                       # Number of cache lines fetched
system.cpu.fetch.Cycles                       2235728                       # Number of cycles fetch has run and was not squashing or blocked
system.cpu.fetch.IcacheSquashes                  4579                       # Number of outstanding Icache misses that were squashed
system.cpu.fetch.Insts                        2862372                       # Number of instructions fetch has processed
system.cpu.fetch.MiscStallCycles                  161                       # Number of cycles fetch has spent waiting on interrupts, or bad addresses, or out of MSHRs
system.cpu.fetch.PendingQuiesceStallCycles            6                       # Number of stall cycles due to pending quiesce instructions
system.cpu.fetch.PendingTrapStallCycles           887                       # Number of stall cycles due to pending traps
system.cpu.fetch.SquashCycles                   48884                       # Number of cycles fetch has spent squashing
system.cpu.fetch.branchRate                  0.179516                       # Number of branch fetches per cycle
system.cpu.fetch.icacheStallCycles             335000                       # Number of cycles fetch is stalled on an Icache miss
system.cpu.fetch.predictedBranches             252405                       # Number of branches that fetch has predicted taken
system.cpu.fetch.rate                        1.039488                       # Number of inst fetches per cycle
system.cpu.fetch.rateDist::samples            2596224                       # Number of instructions fetched each cycle (Total)
system.cpu.fetch.rateDist::mean              1.935229                       # Number of instructions fetched each cycle (Total)
system.cpu.fetch.rateDist::stdev             1.930324                       # Number of instructions fetched each cycle (Total)
system.cpu.fetch.rateDist::underflows               0      0.00%      0.00% # Number of instructions fetched each cycle (Total)
system.cpu.fetch.rateDist::0                  1233562     47.51%     47.51% # Number of instructions fetched each cycle (Total)
system.cpu.fetch.rateDist::1                    76653      2.95%     50.47% # Number of instructions fetched each cycle (Total)
system.cpu.fetch.rateDist::2                    59540      2.29%     52.76% # Number of instructions fetched each cycle (Total)
system.cpu.fetch.rateDist::3                    77322      2.98%     55.74% # Number of instructions fetched each cycle (Total)
system.cpu.fetch.rateDist::4                  1149147     44.26%    100.00% # Number of instructions fetched each cycle (Total)
system.cpu.fetch.rateDist::overflows                0      0.00%    100.00% # Number of instructions fetched each cycle (Total)
system.cpu.fetch.rateDist::min_value                0                       # Number of instructions fetched each cycle (Total)
system.cpu.fetch.rateDist::max_value                4                       # Number of instructions fetched each cycle (Total)
system.cpu.fetch.rateDist::total              2596224                       # Number of instructions fetched each cycle (Total)
system.cpu.fp_regfile_reads                    125168                       # number of floating regfile reads
system.cpu.fp_regfile_writes                    68599                       # number of floating regfile writes
system.cpu.fuPool.fu_ticks_busy::IntALU(0)    219729600                       # Total ticks fu was busy
system.cpu.fuPool.fu_ticks_busy::IntALU(1)    219729600                       # Total ticks fu was busy
system.cpu.fuPool.fu_ticks_busy::IntALU(2)    219729600                       # Total ticks fu was busy
system.cpu.fuPool.fu_ticks_busy::IntALU(3)    219729200                       # Total ticks fu was busy
system.cpu.fuPool.fu_ticks_busy::IntALU(4)    219729200                       # Total ticks fu was busy
system.cpu.fuPool.fu_ticks_busy::IntALU(5)    219729200                       # Total ticks fu was busy
system.cpu.fuPool.fu_ticks_busy::IntMultDiv(0)      8648800                       # Total ticks fu was busy
system.cpu.fuPool.fu_ticks_busy::IntMultDiv(1)      8648400                       # Total ticks fu was busy
system.cpu.fuPool.fu_ticks_busy::FP_ALU(0)       572400                       # Total ticks fu was busy
system.cpu.fuPool.fu_ticks_busy::FP_ALU(1)       572000                       # Total ticks fu was busy
system.cpu.fuPool.fu_ticks_busy::FP_ALU(2)       572000                       # Total ticks fu was busy
system.cpu.fuPool.fu_ticks_busy::FP_ALU(3)       571600                       # Total ticks fu was busy
system.cpu.fuPool.fu_ticks_busy::FP_MultDiv(0)            0                       # Total ticks fu was busy
system.cpu.fuPool.fu_ticks_busy::FP_MultDiv(1)            0                       # Total ticks fu was busy
system.cpu.fuPool.fu_ticks_busy::SIMD_Unit(0)      4686400                       # Total ticks fu was busy
system.cpu.fuPool.fu_ticks_busy::SIMD_Unit(1)      4744800                       # Total ticks fu was busy
system.cpu.fuPool.fu_ticks_busy::SIMD_Unit(2)      4709200                       # Total ticks fu was busy
system.cpu.fuPool.fu_ticks_busy::SIMD_Unit(3)      4665600                       # Total ticks fu was busy
system.cpu.fuPool.fu_ticks_busy::PredALU(0)            0                       # Total ticks fu was busy
system.cpu.fuPool.fu_ticks_busy::RdWrPort(0)     79253600                       # Total ticks fu was busy
system.cpu.fuPool.fu_ticks_busy::RdWrPort(1)     79184000                       # Total ticks fu was busy
system.cpu.fuPool.fu_ticks_busy::RdWrPort(2)     79205600                       # Total ticks fu was busy
system.cpu.fuPool.fu_ticks_busy::RdWrPort(3)     79264400                       # Total ticks fu was busy
system.cpu.fuPool.fu_ticks_busy::IprPort(0)            0                       # Total ticks fu was busy
system.cpu.fuPool.fu_ticks_busy::total     1673675200                       # Total ticks fu was busy
system.cpu.icache.prefetcher.num_hwpf_issued            0                       # number of hwpf issued
system.cpu.icache.prefetcher.pfBufferHit            0                       # number of redundant prefetches already in prefetch queue
system.cpu.icache.prefetcher.pfIdentified            0                       # number of prefetch candidates identified
system.cpu.icache.prefetcher.pfInCache              0                       # number of redundant prefetches already in cache/mshr dropped
system.cpu.icache.prefetcher.pfRemovedFull            0                       # number of prefetches dropped due to prefetch queue size
system.cpu.icache.prefetcher.pfSpanPage             0                       # number of prefetches that crossed the page
system.cpu.idleCycles                          157412                       # Total number of cycles that the CPU has spent unscheduled due to idling
system.cpu.iew.branchMispredicts                28861                       # Number of branch mispredicts detected at execute
system.cpu.iew.exec_branches                   380556                       # Number of branches executed
system.cpu.iew.exec_nop                             0                       # number of nop insts executed
system.cpu.iew.exec_rate                     1.516584                       # Inst execution rate
system.cpu.iew.exec_refs                       779078                       # number of memory reference insts executed
system.cpu.iew.exec_stores                     195797                       # Number of stores executed
system.cpu.iew.exec_swp                             0                       # number of swp insts executed
system.cpu.iew.iewBlockCycles                  695517                       # Number of cycles IEW is blocking
system.cpu.iew.iewDispLoadInsts                614426                       # Number of dispatched load instructions
system.cpu.iew.iewDispNonSpecInsts                952                       # Number of dispatched non-speculative instructions
system.cpu.iew.iewDispSquashedInsts               629                       # Number of squashed instructions skipped by dispatch
system.cpu.iew.iewDispStoreInsts               206651                       # Number of dispatched store instructions
system.cpu.iew.iewDispatchedInsts             4532940                       # Number of instructions dispatched to IQ
system.cpu.iew.iewExecLoadInsts                583281                       # Number of load instructions executed
system.cpu.iew.iewExecSquashedInsts             34717                       # Number of squashed instructions skipped in execute
system.cpu.iew.iewExecutedInsts               4176119                       # Number of executed instructions
system.cpu.iew.iewIQFullEvents                   3199                       # Number of times the IQ has become full, causing a stall
system.cpu.iew.iewIdleCycles                        0                       # Number of cycles IEW is idle
system.cpu.iew.iewLSQFullEvents                  7468                       # Number of times the LSQ has become full, causing a stall
system.cpu.iew.iewSquashCycles                  24442                       # Number of cycles IEW is squashing
system.cpu.iew.iewUnblockCycles                 13588                       # Number of cycles IEW is unblocking
system.cpu.iew.lsq.thread0.blockedLoads             0                       # Number of blocked loads due to partial load-store forwarding
system.cpu.iew.lsq.thread0.cacheBlocked           625                       # Number of times an access to memory failed due to the cache being blocked
system.cpu.iew.lsq.thread0.forwLoads            40004                       # Number of loads that had data forwarded from stores
system.cpu.iew.lsq.thread0.ignoredResponses          268                       # Number of memory responses ignored because the instruction is squashed
system.cpu.iew.lsq.thread0.invAddrLoads             0                       # Number of loads ignored due to an invalid address
system.cpu.iew.lsq.thread0.invAddrSwpfs             0                       # Number of software prefetches ignored due to an invalid address
system.cpu.iew.lsq.thread0.memOrderViolation           92                       # Number of memory ordering violations
system.cpu.iew.lsq.thread0.rescheduledLoads            6                       # Number of loads that were rescheduled
system.cpu.iew.lsq.thread0.squashedLoads       116268                       # Number of loads squashed
system.cpu.iew.lsq.thread0.squashedStores        30112                       # Number of stores squashed
system.cpu.iew.memOrderViolationEvents             92                       # Number of memory order violations
system.cpu.iew.predictedNotTakenIncorrect        20627                       # Number of branches that were predicted not taken incorrectly
system.cpu.iew.predictedTakenIncorrect           8234                       # Number of branches that were predicted taken incorrectly
system.cpu.iew.wb_consumers                   5840114                       # num instructions consuming a value
system.cpu.iew.wb_count                       4154089                       # cumulative count of insts written-back
system.cpu.iew.wb_fanout                     0.567557                       # average fanout of values written-back
system.cpu.iew.wb_producers                   3314595                       # num instructions producing a value
system.cpu.iew.wb_rate                       1.508583                       # insts written-back per cycle
system.cpu.iew.wb_sent                        4160989                       # cumulative count of insts sent to commit
system.cpu.int_regfile_reads                  6468761                       # number of integer regfile reads
system.cpu.int_regfile_writes                 3584953                       # number of integer regfile writes
system.cpu.ipc                               0.759803                       # IPC: Instructions Per Cycle
system.cpu.ipc_total                         0.759803                       # IPC: Total IPC of All Threads
system.cpu.iq.FU_type_0::No_OpClass             26648      0.63%      0.63% # Type of FU issued
system.cpu.iq.FU_type_0::IntAlu               3295942     78.27%     78.91% # Type of FU issued
system.cpu.iq.FU_type_0::IntMult                 1994      0.05%     78.95% # Type of FU issued
system.cpu.iq.FU_type_0::IntDiv                 41249      0.98%     79.93% # Type of FU issued
system.cpu.iq.FU_type_0::FloatAdd                4443      0.11%     80.04% # Type of FU issued
system.cpu.iq.FU_type_0::FloatCmp                   0      0.00%     80.04% # Type of FU issued
system.cpu.iq.FU_type_0::FloatCvt                1277      0.03%     80.07% # Type of FU issued
system.cpu.iq.FU_type_0::FloatMult                  0      0.00%     80.07% # Type of FU issued
system.cpu.iq.FU_type_0::FloatMultAcc               0      0.00%     80.07% # Type of FU issued
system.cpu.iq.FU_type_0::FloatDiv                   0      0.00%     80.07% # Type of FU issued
system.cpu.iq.FU_type_0::FloatMisc                  0      0.00%     80.07% # Type of FU issued
system.cpu.iq.FU_type_0::FloatSqrt                  0      0.00%     80.07% # Type of FU issued
system.cpu.iq.FU_type_0::SimdAdd                 6804      0.16%     80.23% # Type of FU issued
system.cpu.iq.FU_type_0::SimdAddAcc                 0      0.00%     80.23% # Type of FU issued
system.cpu.iq.FU_type_0::SimdAlu                15541      0.37%     80.60% # Type of FU issued
system.cpu.iq.FU_type_0::SimdCmp                    0      0.00%     80.60% # Type of FU issued
system.cpu.iq.FU_type_0::SimdCvt                14332      0.34%     80.94% # Type of FU issued
system.cpu.iq.FU_type_0::SimdMisc                8231      0.20%     81.13% # Type of FU issued
system.cpu.iq.FU_type_0::SimdMult                   0      0.00%     81.13% # Type of FU issued
system.cpu.iq.FU_type_0::SimdMultAcc                0      0.00%     81.13% # Type of FU issued
system.cpu.iq.FU_type_0::SimdShift               2107      0.05%     81.18% # Type of FU issued
system.cpu.iq.FU_type_0::SimdShiftAcc               0      0.00%     81.18% # Type of FU issued
system.cpu.iq.FU_type_0::SimdDiv                    0      0.00%     81.18% # Type of FU issued
system.cpu.iq.FU_type_0::SimdSqrt                   0      0.00%     81.18% # Type of FU issued
system.cpu.iq.FU_type_0::SimdFloatAdd               0      0.00%     81.18% # Type of FU issued
system.cpu.iq.FU_type_0::SimdFloatAlu               0      0.00%     81.18% # Type of FU issued
system.cpu.iq.FU_type_0::SimdFloatCmp               0      0.00%     81.18% # Type of FU issued
system.cpu.iq.FU_type_0::SimdFloatCvt               0      0.00%     81.18% # Type of FU issued
system.cpu.iq.FU_type_0::SimdFloatDiv               0      0.00%     81.18% # Type of FU issued
system.cpu.iq.FU_type_0::SimdFloatMisc              0      0.00%     81.18% # Type of FU issued
system.cpu.iq.FU_type_0::SimdFloatMult              0      0.00%     81.18% # Type of FU issued
system.cpu.iq.FU_type_0::SimdFloatMultAcc            0      0.00%     81.18% # Type of FU issued
system.cpu.iq.FU_type_0::SimdFloatSqrt              0      0.00%     81.18% # Type of FU issued
system.cpu.iq.FU_type_0::SimdReduceAdd              0      0.00%     81.18% # Type of FU issued
system.cpu.iq.FU_type_0::SimdReduceAlu              0      0.00%     81.18% # Type of FU issued
system.cpu.iq.FU_type_0::SimdReduceCmp              0      0.00%     81.18% # Type of FU issued
system.cpu.iq.FU_type_0::SimdFloatReduceAdd            0      0.00%     81.18% # Type of FU issued
system.cpu.iq.FU_type_0::SimdFloatReduceCmp            0      0.00%     81.18% # Type of FU issued
system.cpu.iq.FU_type_0::SimdAes                    0      0.00%     81.18% # Type of FU issued
system.cpu.iq.FU_type_0::SimdAesMix                 0      0.00%     81.18% # Type of FU issued
system.cpu.iq.FU_type_0::SimdSha1Hash               0      0.00%     81.18% # Type of FU issued
system.cpu.iq.FU_type_0::SimdSha1Hash2              0      0.00%     81.18% # Type of FU issued
system.cpu.iq.FU_type_0::SimdSha256Hash             0      0.00%     81.18% # Type of FU issued
system.cpu.iq.FU_type_0::SimdSha256Hash2            0      0.00%     81.18% # Type of FU issued
system.cpu.iq.FU_type_0::SimdShaSigma2              0      0.00%     81.18% # Type of FU issued
system.cpu.iq.FU_type_0::SimdShaSigma3              0      0.00%     81.18% # Type of FU issued
system.cpu.iq.FU_type_0::SimdPredAlu                0      0.00%     81.18% # Type of FU issued
system.cpu.iq.FU_type_0::MemRead               568303     13.50%     94.68% # Type of FU issued
system.cpu.iq.FU_type_0::MemWrite              184714      4.39%     99.07% # Type of FU issued
system.cpu.iq.FU_type_0::FloatMemRead           25529      0.61%     99.67% # Type of FU issued
system.cpu.iq.FU_type_0::FloatMemWrite          13725      0.33%    100.00% # Type of FU issued
system.cpu.iq.FU_type_0::IprAccess                  0      0.00%    100.00% # Type of FU issued
system.cpu.iq.FU_type_0::InstPrefetch               0      0.00%    100.00% # Type of FU issued
system.cpu.iq.FU_type_0::total                4210839                       # Type of FU issued
system.cpu.iq.fp_alu_accesses                   93334                       # Number of floating point alu accesses
system.cpu.iq.fp_inst_queue_reads              188032                       # Number of floating instruction queue reads
system.cpu.iq.fp_inst_queue_wakeup_accesses        89886                       # Number of floating instruction queue wakeup accesses
system.cpu.iq.fp_inst_queue_writes             134998                       # Number of floating instruction queue writes
system.cpu.iq.fu_busy_cnt                           0                       # FU busy when requested
system.cpu.iq.fu_busy_rate                          0                       # FU busy rate (busy events/executed inst)
system.cpu.iq.fu_full::No_OpClass                   0                       # attempts to use FU when none available
system.cpu.iq.fu_full::IntAlu                       0                       # attempts to use FU when none available
system.cpu.iq.fu_full::IntMult                      0                       # attempts to use FU when none available
system.cpu.iq.fu_full::IntDiv                       0                       # attempts to use FU when none available
system.cpu.iq.fu_full::FloatAdd                     0                       # attempts to use FU when none available
system.cpu.iq.fu_full::FloatCmp                     0                       # attempts to use FU when none available
system.cpu.iq.fu_full::FloatCvt                     0                       # attempts to use FU when none available
system.cpu.iq.fu_full::FloatMult                    0                       # attempts to use FU when none available
system.cpu.iq.fu_full::FloatMultAcc                 0                       # attempts to use FU when none available
system.cpu.iq.fu_full::FloatDiv                     0                       # attempts to use FU when none available
system.cpu.iq.fu_full::FloatMisc                    0                       # attempts to use FU when none available
system.cpu.iq.fu_full::FloatSqrt                    0                       # attempts to use FU when none available
system.cpu.iq.fu_full::SimdAdd                      0                       # attempts to use FU when none available
system.cpu.iq.fu_full::SimdAddAcc                   0                       # attempts to use FU when none available
system.cpu.iq.fu_full::SimdAlu                      0                       # attempts to use FU when none available
system.cpu.iq.fu_full::SimdCmp                      0                       # attempts to use FU when none available
system.cpu.iq.fu_full::SimdCvt                      0                       # attempts to use FU when none available
system.cpu.iq.fu_full::SimdMisc                     0                       # attempts to use FU when none available
system.cpu.iq.fu_full::SimdMult                     0                       # attempts to use FU when none available
system.cpu.iq.fu_full::SimdMultAcc                  0                       # attempts to use FU when none available
system.cpu.iq.fu_full::SimdShift                    0                       # attempts to use FU when none available
system.cpu.iq.fu_full::SimdShiftAcc                 0                       # attempts to use FU when none available
system.cpu.iq.fu_full::SimdDiv                      0                       # attempts to use FU when none available
system.cpu.iq.fu_full::SimdSqrt                     0                       # attempts to use FU when none available
system.cpu.iq.fu_full::SimdFloatAdd                 0                       # attempts to use FU when none available
system.cpu.iq.fu_full::SimdFloatAlu                 0                       # attempts to use FU when none available
system.cpu.iq.fu_full::SimdFloatCmp                 0                       # attempts to use FU when none available
system.cpu.iq.fu_full::SimdFloatCvt                 0                       # attempts to use FU when none available
system.cpu.iq.fu_full::SimdFloatDiv                 0                       # attempts to use FU when none available
system.cpu.iq.fu_full::SimdFloatMisc                0                       # attempts to use FU when none available
system.cpu.iq.fu_full::SimdFloatMult                0                       # attempts to use FU when none available
system.cpu.iq.fu_full::SimdFloatMultAcc             0                       # attempts to use FU when none available
system.cpu.iq.fu_full::SimdFloatSqrt                0                       # attempts to use FU when none available
system.cpu.iq.fu_full::SimdReduceAdd                0                       # attempts to use FU when none available
system.cpu.iq.fu_full::SimdReduceAlu                0                       # attempts to use FU when none available
system.cpu.iq.fu_full::SimdReduceCmp                0                       # attempts to use FU when none available
system.cpu.iq.fu_full::SimdFloatReduceAdd            0                       # attempts to use FU when none available
system.cpu.iq.fu_full::SimdFloatReduceCmp            0                       # attempts to use FU when none available
system.cpu.iq.fu_full::SimdAes                      0                       # attempts to use FU when none available
system.cpu.iq.fu_full::SimdAesMix                   0                       # attempts to use FU when none available
system.cpu.iq.fu_full::SimdSha1Hash                 0                       # attempts to use FU when none available
system.cpu.iq.fu_full::SimdSha1Hash2                0                       # attempts to use FU when none available
system.cpu.iq.fu_full::SimdSha256Hash               0                       # attempts to use FU when none available
system.cpu.iq.fu_full::SimdSha256Hash2              0                       # attempts to use FU when none available
system.cpu.iq.fu_full::SimdShaSigma2                0                       # attempts to use FU when none available
system.cpu.iq.fu_full::SimdShaSigma3                0                       # attempts to use FU when none available
system.cpu.iq.fu_full::SimdPredAlu                  0                       # attempts to use FU when none available
system.cpu.iq.fu_full::MemRead                      0                       # attempts to use FU when none available
system.cpu.iq.fu_full::MemWrite                     0                       # attempts to use FU when none available
system.cpu.iq.fu_full::FloatMemRead                 0                       # attempts to use FU when none available
system.cpu.iq.fu_full::FloatMemWrite                0                       # attempts to use FU when none available
system.cpu.iq.fu_full::IprAccess                    0                       # attempts to use FU when none available
system.cpu.iq.fu_full::InstPrefetch                 0                       # attempts to use FU when none available
system.cpu.iq.int_alu_accesses                4090857                       # Number of integer alu accesses
system.cpu.iq.int_inst_queue_reads           10848907                       # Number of integer instruction queue reads
system.cpu.iq.int_inst_queue_wakeup_accesses      4064203                       # Number of integer instruction queue wakeup accesses
system.cpu.iq.int_inst_queue_writes           5287015                       # Number of integer instruction queue writes
system.cpu.iq.iqInstsAdded                    4531791                       # Number of instructions added to the IQ (excludes non-spec)
system.cpu.iq.iqInstsIssued                   4210839                       # Number of instructions issued
system.cpu.iq.iqNonSpecInstsAdded                1149                       # Number of non-speculative instructions added to the IQ
system.cpu.iq.iqSquashedInstsExamined          888984                       # Number of squashed instructions iterated over during squash; mainly for profiling
system.cpu.iq.iqSquashedInstsIssued             19040                       # Number of squashed instructions issued
system.cpu.iq.iqSquashedNonSpecRemoved            398                       # Number of squashed non-spec instructions that were removed
system.cpu.iq.iqSquashedOperandsExamined      1328427                       # Number of squashed operands that are examined and possibly removed from graph
system.cpu.iq.issued_per_cycle::samples       2596224                       # Number of insts issued each cycle
system.cpu.iq.issued_per_cycle::mean         1.621909                       # Number of insts issued each cycle
system.cpu.iq.issued_per_cycle::stdev        1.668779                       # Number of insts issued each cycle
system.cpu.iq.issued_per_cycle::underflows            0      0.00%      0.00% # Number of insts issued each cycle
system.cpu.iq.issued_per_cycle::0             1172201     45.15%     45.15% # Number of insts issued each cycle
system.cpu.iq.issued_per_cycle::1              176899      6.81%     51.96% # Number of insts issued each cycle
system.cpu.iq.issued_per_cycle::2              305316     11.76%     63.72% # Number of insts issued each cycle
system.cpu.iq.issued_per_cycle::3              343924     13.25%     76.97% # Number of insts issued each cycle
system.cpu.iq.issued_per_cycle::4              597884     23.03%    100.00% # Number of insts issued each cycle
system.cpu.iq.issued_per_cycle::overflows            0      0.00%    100.00% # Number of insts issued each cycle
system.cpu.iq.issued_per_cycle::min_value            0                       # Number of insts issued each cycle
system.cpu.iq.issued_per_cycle::max_value            4                       # Number of insts issued each cycle
system.cpu.iq.issued_per_cycle::total         2596224                       # Number of insts issued each cycle
system.cpu.iq.rate                           1.529192                       # Inst issue rate
system.cpu.iq.vec_alu_accesses                      0                       # Number of vector alu accesses
system.cpu.iq.vec_inst_queue_reads                  0                       # Number of vector instruction queue reads
system.cpu.iq.vec_inst_queue_wakeup_accesses            0                       # Number of vector instruction queue wakeup accesses
system.cpu.iq.vec_inst_queue_writes                 0                       # Number of vector instruction queue writes
system.cpu.itb.rdAccesses                           0                       # TLB accesses on read requests
system.cpu.itb.rdMisses                             0                       # TLB misses on read requests
system.cpu.itb.wrAccesses                      244711                       # TLB accesses on write requests
system.cpu.itb.wrMisses                           403                       # TLB misses on write requests
system.cpu.memDep0.conflictingLoads             12407                       # Number of conflicting loads.
system.cpu.memDep0.conflictingStores             4552                       # Number of conflicting stores.
system.cpu.memDep0.insertedLoads               614426                       # Number of loads inserted to the mem dependence unit.
system.cpu.memDep0.insertedStores              206651                       # Number of stores inserted to the mem dependence unit.
system.cpu.misc_regfile_reads                 1576273                       # number of misc regfile reads
system.cpu.misc_regfile_writes                    693                       # number of misc regfile writes
system.cpu.numCycles                          2753636                       # number of cpu cycles simulated
system.cpu.numWorkItemsCompleted                    0                       # number of work items this cpu completed
system.cpu.numWorkItemsStarted                      0                       # number of work items this cpu started
system.cpu.process.numSyscalls                     57                       # Number of system calls
system.cpu.rename.BlockCycles                  840329                       # Number of cycles rename is blocking
system.cpu.rename.CommittedMaps               4980987                       # Number of HB maps that are committed
system.cpu.rename.FullRegisterEvents               41                       # Number of times there has been no free registers
system.cpu.rename.IQFullEvents                  47893                       # Number of times rename has blocked due to IQ full
system.cpu.rename.IdleCycles                   350555                       # Number of cycles rename is idle
system.cpu.rename.LQFullEvents                  15826                       # Number of times rename has blocked due to LQ full
system.cpu.rename.ROBFullEvents                  5293                       # Number of times rename has blocked due to ROB full
system.cpu.rename.RenameLookups              12211566                       # Number of register rename lookups that rename has made
system.cpu.rename.RenamedInsts                4674247                       # Number of instructions processed by rename
system.cpu.rename.RenamedOperands             6378357                       # Number of destination operands rename has renamed
system.cpu.rename.RunCycles                   1185643                       # Number of cycles rename is running
system.cpu.rename.SQFullEvents                  75616                       # Number of times rename has blocked due to SQ full
system.cpu.rename.SquashCycles                  24442                       # Number of cycles rename is squashing
system.cpu.rename.UnblockCycles                175706                       # Number of cycles rename is unblocking
system.cpu.rename.UndoneMaps                  1397347                       # Number of HB maps that are undone due to squashing
system.cpu.rename.fp_rename_lookups            160611                       # Number of floating rename lookups
system.cpu.rename.int_rename_lookups          7418186                       # Number of integer rename lookups
system.cpu.rename.serializeStallCycles          19549                       # count of cycles rename stalled for serializing inst
system.cpu.rename.serializingInsts                887                       # count of serializing insts renamed
system.cpu.rename.skidInsts                    207279                       # count of insts added to the skid buffer
system.cpu.rename.tempSerializingInsts            943                       # count of temporary serializing insts renamed
system.cpu.rob.rob_reads                      6283606                       # The number of ROB reads
system.cpu.rob.rob_writes                     9309210                       # The number of ROB writes
system.cpu.timesIdled                            1603                       # Number of times that the entire CPU went into an idle state and unscheduled itself
system.l2bus.snoop_filter.hit_multi_requests           11                       # Number of requests hitting in the snoop filter with multiple (>1) holders of the requested data.
system.l2bus.snoop_filter.hit_multi_snoops            0                       # Number of snoops hitting in the snoop filter with multiple (>1) holders of the requested data.
system.l2bus.snoop_filter.hit_single_requests        18575                       # Number of requests hitting in the snoop filter with a single holder of the requested data.
system.l2bus.snoop_filter.hit_single_snoops          434                       # Number of snoops hitting in the snoop filter with a single holder of the requested data.
system.l2bus.snoop_filter.tot_requests          38426                       # Total number of requests made to the snoop filter.
system.l2bus.snoop_filter.tot_snoops              434                       # Total number of snoops made to the snoop filter.
system.l2cache.prefetcher.num_hwpf_issued          719                       # number of hwpf issued
system.l2cache.prefetcher.pfBufferHit               0                       # number of redundant prefetches already in prefetch queue
system.l2cache.prefetcher.pfIdentified            719                       # number of prefetch candidates identified
system.l2cache.prefetcher.pfInCache                 0                       # number of redundant prefetches already in cache/mshr dropped
system.l2cache.prefetcher.pfRemovedFull             0                       # number of prefetches dropped due to prefetch queue size
system.l2cache.prefetcher.pfSpanPage              137                       # number of prefetches that crossed the page
system.membus.snoop_filter.hit_multi_requests            0                       # Number of requests hitting in the snoop filter with multiple (>1) holders of the requested data.
system.membus.snoop_filter.hit_multi_snoops            0                       # Number of snoops hitting in the snoop filter with multiple (>1) holders of the requested data.
system.membus.snoop_filter.hit_single_requests         9452                       # Number of requests hitting in the snoop filter with a single holder of the requested data.
system.membus.snoop_filter.hit_single_snoops            0                       # Number of snoops hitting in the snoop filter with a single holder of the requested data.
system.membus.snoop_filter.tot_requests         23023                       # Total number of requests made to the snoop filter.
system.membus.snoop_filter.tot_snoops               0                       # Total number of snoops made to the snoop filter.
system.membus.pwrStateResidencyTicks::UNDEFINED   1101454000                       # Cumulative time (in ticks) in various power states
system.membus.trans_dist::ReadResp              12231                       # Transaction distribution
system.membus.trans_dist::WritebackDirty         1338                       # Transaction distribution
system.membus.trans_dist::CleanEvict             8114                       # Transaction distribution
system.membus.trans_dist::ReadExReq              1340                       # Transaction distribution
system.membus.trans_dist::ReadExResp             1340                       # Transaction distribution
system.membus.trans_dist::ReadSharedReq         12231                       # Transaction distribution
system.membus.pkt_count_system.l2cache.mem_side::system.mem_ctrl.port        36594                       # Packet count per connected master and slave (bytes)
system.membus.pkt_count_system.l2cache.mem_side::total        36594                       # Packet count per connected master and slave (bytes)
system.membus.pkt_count::total                  36594                       # Packet count per connected master and slave (bytes)
system.membus.pkt_size_system.l2cache.mem_side::system.mem_ctrl.port       954176                       # Cumulative packet size per connected master and slave (bytes)
system.membus.pkt_size_system.l2cache.mem_side::total       954176                       # Cumulative packet size per connected master and slave (bytes)
system.membus.pkt_size::total                  954176                       # Cumulative packet size per connected master and slave (bytes)
system.membus.snoops                                0                       # Total snoops (count)
system.membus.snoopTraffic                          0                       # Total snoop traffic (bytes)
system.membus.snoop_fanout::samples             13571                       # Request fanout histogram
system.membus.snoop_fanout::mean                    0                       # Request fanout histogram
system.membus.snoop_fanout::stdev                   0                       # Request fanout histogram
system.membus.snoop_fanout::underflows              0      0.00%      0.00% # Request fanout histogram
system.membus.snoop_fanout::0                   13571    100.00%    100.00% # Request fanout histogram
system.membus.snoop_fanout::1                       0      0.00%    100.00% # Request fanout histogram
system.membus.snoop_fanout::overflows               0      0.00%    100.00% # Request fanout histogram
system.membus.snoop_fanout::min_value               0                       # Request fanout histogram
system.membus.snoop_fanout::max_value               0                       # Request fanout histogram
system.membus.snoop_fanout::total               13571                       # Request fanout histogram
system.membus.reqLayer2.occupancy            11377697                       # Layer occupancy (ticks)
system.membus.reqLayer2.utilization               1.0                       # Layer utilization (%)
system.membus.respLayer0.occupancy           29431903                       # Layer occupancy (ticks)
system.membus.respLayer0.utilization              2.7                       # Layer utilization (%)
system.l2bus.pwrStateResidencyTicks::UNDEFINED   1101454000                       # Cumulative time (in ticks) in various power states
system.l2bus.trans_dist::ReadResp               17763                       # Transaction distribution
system.l2bus.trans_dist::WritebackDirty          4127                       # Transaction distribution
system.l2bus.trans_dist::CleanEvict             23981                       # Transaction distribution
system.l2bus.trans_dist::HardPFReq               1017                       # Transaction distribution
system.l2bus.trans_dist::ReadExReq               2090                       # Transaction distribution
system.l2bus.trans_dist::ReadExResp              2090                       # Transaction distribution
system.l2bus.trans_dist::ReadSharedReq          17763                       # Transaction distribution
system.l2bus.pkt_count_system.cpu.icache.mem_side::system.l2cache.cpu_side         8234                       # Packet count per connected master and slave (bytes)
system.l2bus.pkt_count_system.cpu.dcache.mem_side::system.l2cache.cpu_side        50042                       # Packet count per connected master and slave (bytes)
system.l2bus.pkt_count::total                   58276                       # Packet count per connected master and slave (bytes)
system.l2bus.pkt_size_system.cpu.icache.mem_side::system.l2cache.cpu_side       180992                       # Cumulative packet size per connected master and slave (bytes)
system.l2bus.pkt_size_system.cpu.dcache.mem_side::system.l2cache.cpu_side      1267904                       # Cumulative packet size per connected master and slave (bytes)
system.l2bus.pkt_size::total                  1448896                       # Cumulative packet size per connected master and slave (bytes)
system.l2bus.snoops                             10555                       # Total snoops (count)
system.l2bus.snoopTraffic                       85824                       # Total snoop traffic (bytes)
system.l2bus.snoop_fanout::samples              30405                       # Request fanout histogram
system.l2bus.snoop_fanout::mean              0.014702                       # Request fanout histogram
system.l2bus.snoop_fanout::stdev             0.120357                       # Request fanout histogram
system.l2bus.snoop_fanout::underflows               0      0.00%      0.00% # Request fanout histogram
system.l2bus.snoop_fanout::0                    29958     98.53%     98.53% # Request fanout histogram
system.l2bus.snoop_fanout::1                      447      1.47%    100.00% # Request fanout histogram
system.l2bus.snoop_fanout::2                        0      0.00%    100.00% # Request fanout histogram
system.l2bus.snoop_fanout::overflows                0      0.00%    100.00% # Request fanout histogram
system.l2bus.snoop_fanout::min_value                0                       # Request fanout histogram
system.l2bus.snoop_fanout::max_value                1                       # Request fanout histogram
system.l2bus.snoop_fanout::total                30405                       # Request fanout histogram
system.l2bus.respLayer1.occupancy            20426799                       # Layer occupancy (ticks)
system.l2bus.respLayer1.utilization               1.9                       # Layer utilization (%)
system.l2bus.reqLayer0.occupancy             19050219                       # Layer occupancy (ticks)
system.l2bus.reqLayer0.utilization                1.7                       # Layer utilization (%)
system.l2bus.respLayer0.occupancy             3398397                       # Layer occupancy (ticks)
system.l2bus.respLayer0.utilization               0.3                       # Layer utilization (%)
system.clk_domain.clock                           400                       # Clock period in ticks
system.clk_domain.voltage_domain.voltage            1                       # Voltage in Volts
system.cpu.pwrStateResidencyTicks::ON      1101454000                       # Cumulative time (in ticks) in various power states
system.cpu.icache.pwrStateResidencyTicks::UNDEFINED   1101454000                       # Cumulative time (in ticks) in various power states
system.cpu.icache.demand_hits::.cpu.inst       241027                       # number of demand (read+write) hits
system.cpu.icache.demand_hits::total           241027                       # number of demand (read+write) hits
system.cpu.icache.overall_hits::.cpu.inst       241027                       # number of overall hits
system.cpu.icache.overall_hits::total          241027                       # number of overall hits
system.cpu.icache.demand_misses::.cpu.inst         3531                       # number of demand (read+write) misses
system.cpu.icache.demand_misses::total           3531                       # number of demand (read+write) misses
system.cpu.icache.overall_misses::.cpu.inst         3531                       # number of overall misses
system.cpu.icache.overall_misses::total          3531                       # number of overall misses
system.cpu.icache.demand_miss_latency::.cpu.inst    174829200                       # number of demand (read+write) miss cycles
system.cpu.icache.demand_miss_latency::total    174829200                       # number of demand (read+write) miss cycles
system.cpu.icache.overall_miss_latency::.cpu.inst    174829200                       # number of overall miss cycles
system.cpu.icache.overall_miss_latency::total    174829200                       # number of overall miss cycles
system.cpu.icache.demand_accesses::.cpu.inst       244558                       # number of demand (read+write) accesses
system.cpu.icache.demand_accesses::total       244558                       # number of demand (read+write) accesses
system.cpu.icache.overall_accesses::.cpu.inst       244558                       # number of overall (read+write) accesses
system.cpu.icache.overall_accesses::total       244558                       # number of overall (read+write) accesses
system.cpu.icache.demand_miss_rate::.cpu.inst     0.014438                       # miss rate for demand accesses
system.cpu.icache.demand_miss_rate::total     0.014438                       # miss rate for demand accesses
system.cpu.icache.overall_miss_rate::.cpu.inst     0.014438                       # miss rate for overall accesses
system.cpu.icache.overall_miss_rate::total     0.014438                       # miss rate for overall accesses
system.cpu.icache.demand_avg_miss_latency::.cpu.inst 49512.659303                       # average overall miss latency
system.cpu.icache.demand_avg_miss_latency::total 49512.659303                       # average overall miss latency
system.cpu.icache.overall_avg_miss_latency::.cpu.inst 49512.659303                       # average overall miss latency
system.cpu.icache.overall_avg_miss_latency::total 49512.659303                       # average overall miss latency
system.cpu.icache.blocked_cycles::no_mshrs           59                       # number of cycles access was blocked
system.cpu.icache.blocked_cycles::no_targets            0                       # number of cycles access was blocked
system.cpu.icache.blocked::no_mshrs                 3                       # number of cycles access was blocked
system.cpu.icache.blocked::no_targets               0                       # number of cycles access was blocked
system.cpu.icache.avg_blocked_cycles::no_mshrs    19.666667                       # average number of cycles each access was blocked
system.cpu.icache.avg_blocked_cycles::no_targets          nan                       # average number of cycles each access was blocked
system.cpu.icache.demand_mshr_hits::.cpu.inst          700                       # number of demand (read+write) MSHR hits
system.cpu.icache.demand_mshr_hits::total          700                       # number of demand (read+write) MSHR hits
system.cpu.icache.overall_mshr_hits::.cpu.inst          700                       # number of overall MSHR hits
system.cpu.icache.overall_mshr_hits::total          700                       # number of overall MSHR hits
system.cpu.icache.demand_mshr_misses::.cpu.inst         2831                       # number of demand (read+write) MSHR misses
system.cpu.icache.demand_mshr_misses::total         2831                       # number of demand (read+write) MSHR misses
system.cpu.icache.overall_mshr_misses::.cpu.inst         2831                       # number of overall MSHR misses
system.cpu.icache.overall_mshr_misses::total         2831                       # number of overall MSHR misses
system.cpu.icache.demand_mshr_miss_latency::.cpu.inst    141678400                       # number of demand (read+write) MSHR miss cycles
system.cpu.icache.demand_mshr_miss_latency::total    141678400                       # number of demand (read+write) MSHR miss cycles
system.cpu.icache.overall_mshr_miss_latency::.cpu.inst    141678400                       # number of overall MSHR miss cycles
system.cpu.icache.overall_mshr_miss_latency::total    141678400                       # number of overall MSHR miss cycles
system.cpu.icache.demand_mshr_miss_rate::.cpu.inst     0.011576                       # mshr miss rate for demand accesses
system.cpu.icache.demand_mshr_miss_rate::total     0.011576                       # mshr miss rate for demand accesses
system.cpu.icache.overall_mshr_miss_rate::.cpu.inst     0.011576                       # mshr miss rate for overall accesses
system.cpu.icache.overall_mshr_miss_rate::total     0.011576                       # mshr miss rate for overall accesses
system.cpu.icache.demand_avg_mshr_miss_latency::.cpu.inst 50045.354998                       # average overall mshr miss latency
system.cpu.icache.demand_avg_mshr_miss_latency::total 50045.354998                       # average overall mshr miss latency
system.cpu.icache.overall_avg_mshr_miss_latency::.cpu.inst 50045.354998                       # average overall mshr miss latency
system.cpu.icache.overall_avg_mshr_miss_latency::total 50045.354998                       # average overall mshr miss latency
system.cpu.icache.replacements                   2575                       # number of replacements
system.cpu.icache.ReadReq_hits::.cpu.inst       241027                       # number of ReadReq hits
system.cpu.icache.ReadReq_hits::total          241027                       # number of ReadReq hits
system.cpu.icache.ReadReq_misses::.cpu.inst         3531                       # number of ReadReq misses
system.cpu.icache.ReadReq_misses::total          3531                       # number of ReadReq misses
system.cpu.icache.ReadReq_miss_latency::.cpu.inst    174829200                       # number of ReadReq miss cycles
system.cpu.icache.ReadReq_miss_latency::total    174829200                       # number of ReadReq miss cycles
system.cpu.icache.ReadReq_accesses::.cpu.inst       244558                       # number of ReadReq accesses(hits+misses)
system.cpu.icache.ReadReq_accesses::total       244558                       # number of ReadReq accesses(hits+misses)
system.cpu.icache.ReadReq_miss_rate::.cpu.inst     0.014438                       # miss rate for ReadReq accesses
system.cpu.icache.ReadReq_miss_rate::total     0.014438                       # miss rate for ReadReq accesses
system.cpu.icache.ReadReq_avg_miss_latency::.cpu.inst 49512.659303                       # average ReadReq miss latency
system.cpu.icache.ReadReq_avg_miss_latency::total 49512.659303                       # average ReadReq miss latency
system.cpu.icache.ReadReq_mshr_hits::.cpu.inst          700                       # number of ReadReq MSHR hits
system.cpu.icache.ReadReq_mshr_hits::total          700                       # number of ReadReq MSHR hits
system.cpu.icache.ReadReq_mshr_misses::.cpu.inst         2831                       # number of ReadReq MSHR misses
system.cpu.icache.ReadReq_mshr_misses::total         2831                       # number of ReadReq MSHR misses
system.cpu.icache.ReadReq_mshr_miss_latency::.cpu.inst    141678400                       # number of ReadReq MSHR miss cycles
system.cpu.icache.ReadReq_mshr_miss_latency::total    141678400                       # number of ReadReq MSHR miss cycles
system.cpu.icache.ReadReq_mshr_miss_rate::.cpu.inst     0.011576                       # mshr miss rate for ReadReq accesses
system.cpu.icache.ReadReq_mshr_miss_rate::total     0.011576                       # mshr miss rate for ReadReq accesses
system.cpu.icache.ReadReq_avg_mshr_miss_latency::.cpu.inst 50045.354998                       # average ReadReq mshr miss latency
system.cpu.icache.ReadReq_avg_mshr_miss_latency::total 50045.354998                       # average ReadReq mshr miss latency
system.cpu.icache.prefetcher.pwrStateResidencyTicks::UNDEFINED   1101454000                       # Cumulative time (in ticks) in various power states
system.cpu.icache.tags.pwrStateResidencyTicks::UNDEFINED   1101454000                       # Cumulative time (in ticks) in various power states
system.cpu.icache.tags.tagsinuse           253.491489                       # Cycle average of tags in use
system.cpu.icache.tags.total_refs              228153                       # Total number of references to valid blocks.
system.cpu.icache.tags.sampled_refs              2575                       # Sample count of references to valid blocks.
system.cpu.icache.tags.avg_refs             88.603107                       # Average number of references to valid blocks.
system.cpu.icache.tags.warmup_cycle             66400                       # Cycle when the warmup percentage was hit.
system.cpu.icache.tags.occ_blocks::.cpu.inst   253.491489                       # Average occupied blocks per requestor
system.cpu.icache.tags.occ_percent::.cpu.inst     0.990201                       # Average percentage of cache occupancy
system.cpu.icache.tags.occ_percent::total     0.990201                       # Average percentage of cache occupancy
system.cpu.icache.tags.occ_task_id_blocks::1024          256                       # Occupied blocks per task id
system.cpu.icache.tags.age_task_id_blocks_1024::0           77                       # Occupied blocks per task id
system.cpu.icache.tags.age_task_id_blocks_1024::1          155                       # Occupied blocks per task id
system.cpu.icache.tags.age_task_id_blocks_1024::2           22                       # Occupied blocks per task id
system.cpu.icache.tags.age_task_id_blocks_1024::3            2                       # Occupied blocks per task id
system.cpu.icache.tags.occ_task_id_percent::1024            1                       # Percentage of cache occupancy per task id
system.cpu.icache.tags.tag_accesses            491947                       # Number of tag accesses
system.cpu.icache.tags.data_accesses           491947                       # Number of data accesses
system.cpu.dtb.walker.pwrStateResidencyTicks::UNDEFINED   1101454000                       # Cumulative time (in ticks) in various power states
system.cpu.interrupts.clk_domain.clock           6400                       # Clock period in ticks
system.cpu.itb.walker.pwrStateResidencyTicks::UNDEFINED   1101454000                       # Cumulative time (in ticks) in various power states
system.cpu.dcache.pwrStateResidencyTicks::UNDEFINED   1101454000                       # Cumulative time (in ticks) in various power states
system.cpu.dcache.demand_hits::.cpu.data       681825                       # number of demand (read+write) hits
system.cpu.dcache.demand_hits::total           681825                       # number of demand (read+write) hits
system.cpu.dcache.overall_hits::.cpu.data       681825                       # number of overall hits
system.cpu.dcache.overall_hits::total          681825                       # number of overall hits
system.cpu.dcache.demand_misses::.cpu.data        35094                       # number of demand (read+write) misses
system.cpu.dcache.demand_misses::total          35094                       # number of demand (read+write) misses
system.cpu.dcache.overall_misses::.cpu.data        35094                       # number of overall misses
system.cpu.dcache.overall_misses::total         35094                       # number of overall misses
system.cpu.dcache.demand_miss_latency::.cpu.data   1702530800                       # number of demand (read+write) miss cycles
system.cpu.dcache.demand_miss_latency::total   1702530800                       # number of demand (read+write) miss cycles
system.cpu.dcache.overall_miss_latency::.cpu.data   1702530800                       # number of overall miss cycles
system.cpu.dcache.overall_miss_latency::total   1702530800                       # number of overall miss cycles
system.cpu.dcache.demand_accesses::.cpu.data       716919                       # number of demand (read+write) accesses
system.cpu.dcache.demand_accesses::total       716919                       # number of demand (read+write) accesses
system.cpu.dcache.overall_accesses::.cpu.data       716919                       # number of overall (read+write) accesses
system.cpu.dcache.overall_accesses::total       716919                       # number of overall (read+write) accesses
system.cpu.dcache.demand_miss_rate::.cpu.data     0.048951                       # miss rate for demand accesses
system.cpu.dcache.demand_miss_rate::total     0.048951                       # miss rate for demand accesses
system.cpu.dcache.overall_miss_rate::.cpu.data     0.048951                       # miss rate for overall accesses
system.cpu.dcache.overall_miss_rate::total     0.048951                       # miss rate for overall accesses
system.cpu.dcache.demand_avg_miss_latency::.cpu.data 48513.443894                       # average overall miss latency
system.cpu.dcache.demand_avg_miss_latency::total 48513.443894                       # average overall miss latency
system.cpu.dcache.overall_avg_miss_latency::.cpu.data 48513.443894                       # average overall miss latency
system.cpu.dcache.overall_avg_miss_latency::total 48513.443894                       # average overall miss latency
system.cpu.dcache.blocked_cycles::no_mshrs        29395                       # number of cycles access was blocked
system.cpu.dcache.blocked_cycles::no_targets           98                       # number of cycles access was blocked
system.cpu.dcache.blocked::no_mshrs               772                       # number of cycles access was blocked
system.cpu.dcache.blocked::no_targets               1                       # number of cycles access was blocked
system.cpu.dcache.avg_blocked_cycles::no_mshrs    38.076425                       # average number of cycles each access was blocked
system.cpu.dcache.avg_blocked_cycles::no_targets           98                       # average number of cycles each access was blocked
system.cpu.dcache.unused_prefetches              1888                       # number of HardPF blocks evicted w/o reference
system.cpu.dcache.writebacks::.writebacks         2789                       # number of writebacks
system.cpu.dcache.writebacks::total              2789                       # number of writebacks
system.cpu.dcache.demand_mshr_hits::.cpu.data        22492                       # number of demand (read+write) MSHR hits
system.cpu.dcache.demand_mshr_hits::total        22492                       # number of demand (read+write) MSHR hits
system.cpu.dcache.overall_mshr_hits::.cpu.data        22492                       # number of overall MSHR hits
system.cpu.dcache.overall_mshr_hits::total        22492                       # number of overall MSHR hits
system.cpu.dcache.demand_mshr_misses::.cpu.data        12602                       # number of demand (read+write) MSHR misses
system.cpu.dcache.demand_mshr_misses::total        12602                       # number of demand (read+write) MSHR misses
system.cpu.dcache.overall_mshr_misses::.cpu.data        12602                       # number of overall MSHR misses
system.cpu.dcache.overall_mshr_misses::.cpu.dcache.prefetcher         4420                       # number of overall MSHR misses
system.cpu.dcache.overall_mshr_misses::total        17022                       # number of overall MSHR misses
system.cpu.dcache.demand_mshr_miss_latency::.cpu.data    581418800                       # number of demand (read+write) MSHR miss cycles
system.cpu.dcache.demand_mshr_miss_latency::total    581418800                       # number of demand (read+write) MSHR miss cycles
system.cpu.dcache.overall_mshr_miss_latency::.cpu.data    581418800                       # number of overall MSHR miss cycles
system.cpu.dcache.overall_mshr_miss_latency::.cpu.dcache.prefetcher    246604472                       # number of overall MSHR miss cycles
system.cpu.dcache.overall_mshr_miss_latency::total    828023272                       # number of overall MSHR miss cycles
system.cpu.dcache.demand_mshr_miss_rate::.cpu.data     0.017578                       # mshr miss rate for demand accesses
system.cpu.dcache.demand_mshr_miss_rate::total     0.017578                       # mshr miss rate for demand accesses
system.cpu.dcache.overall_mshr_miss_rate::.cpu.data     0.017578                       # mshr miss rate for overall accesses
system.cpu.dcache.overall_mshr_miss_rate::.cpu.dcache.prefetcher          inf                       # mshr miss rate for overall accesses
system.cpu.dcache.overall_mshr_miss_rate::total     0.023743                       # mshr miss rate for overall accesses
system.cpu.dcache.demand_avg_mshr_miss_latency::.cpu.data 46137.025869                       # average overall mshr miss latency
system.cpu.dcache.demand_avg_mshr_miss_latency::total 46137.025869                       # average overall mshr miss latency
system.cpu.dcache.overall_avg_mshr_miss_latency::.cpu.data 46137.025869                       # average overall mshr miss latency
system.cpu.dcache.overall_avg_mshr_miss_latency::.cpu.dcache.prefetcher 55792.866968                       # average overall mshr miss latency
system.cpu.dcache.overall_avg_mshr_miss_latency::total 48644.299847                       # average overall mshr miss latency
system.cpu.dcache.replacements                  15998                       # number of replacements
system.cpu.dcache.ReadReq_hits::.cpu.data       507387                       # number of ReadReq hits
system.cpu.dcache.ReadReq_hits::total          507387                       # number of ReadReq hits
system.cpu.dcache.ReadReq_misses::.cpu.data        32970                       # number of ReadReq misses
system.cpu.dcache.ReadReq_misses::total         32970                       # number of ReadReq misses
system.cpu.dcache.ReadReq_miss_latency::.cpu.data   1597708000                       # number of ReadReq miss cycles
system.cpu.dcache.ReadReq_miss_latency::total   1597708000                       # number of ReadReq miss cycles
system.cpu.dcache.ReadReq_accesses::.cpu.data       540357                       # number of ReadReq accesses(hits+misses)
system.cpu.dcache.ReadReq_accesses::total       540357                       # number of ReadReq accesses(hits+misses)
system.cpu.dcache.ReadReq_miss_rate::.cpu.data     0.061015                       # miss rate for ReadReq accesses
system.cpu.dcache.ReadReq_miss_rate::total     0.061015                       # miss rate for ReadReq accesses
system.cpu.dcache.ReadReq_avg_miss_latency::.cpu.data 48459.447983                       # average ReadReq miss latency
system.cpu.dcache.ReadReq_avg_miss_latency::total 48459.447983                       # average ReadReq miss latency
system.cpu.dcache.ReadReq_mshr_hits::.cpu.data        22457                       # number of ReadReq MSHR hits
system.cpu.dcache.ReadReq_mshr_hits::total        22457                       # number of ReadReq MSHR hits
system.cpu.dcache.ReadReq_mshr_misses::.cpu.data        10513                       # number of ReadReq MSHR misses
system.cpu.dcache.ReadReq_mshr_misses::total        10513                       # number of ReadReq MSHR misses
system.cpu.dcache.ReadReq_mshr_miss_latency::.cpu.data    479673200                       # number of ReadReq MSHR miss cycles
system.cpu.dcache.ReadReq_mshr_miss_latency::total    479673200                       # number of ReadReq MSHR miss cycles
system.cpu.dcache.ReadReq_mshr_miss_rate::.cpu.data     0.019456                       # mshr miss rate for ReadReq accesses
system.cpu.dcache.ReadReq_mshr_miss_rate::total     0.019456                       # mshr miss rate for ReadReq accesses
system.cpu.dcache.ReadReq_avg_mshr_miss_latency::.cpu.data 45626.671740                       # average ReadReq mshr miss latency
system.cpu.dcache.ReadReq_avg_mshr_miss_latency::total 45626.671740                       # average ReadReq mshr miss latency
system.cpu.dcache.WriteReq_hits::.cpu.data       174438                       # number of WriteReq hits
system.cpu.dcache.WriteReq_hits::total         174438                       # number of WriteReq hits
system.cpu.dcache.WriteReq_misses::.cpu.data         2124                       # number of WriteReq misses
system.cpu.dcache.WriteReq_misses::total         2124                       # number of WriteReq misses
system.cpu.dcache.WriteReq_miss_latency::.cpu.data    104822800                       # number of WriteReq miss cycles
system.cpu.dcache.WriteReq_miss_latency::total    104822800                       # number of WriteReq miss cycles
system.cpu.dcache.WriteReq_accesses::.cpu.data       176562                       # number of WriteReq accesses(hits+misses)
system.cpu.dcache.WriteReq_accesses::total       176562                       # number of WriteReq accesses(hits+misses)
system.cpu.dcache.WriteReq_miss_rate::.cpu.data     0.012030                       # miss rate for WriteReq accesses
system.cpu.dcache.WriteReq_miss_rate::total     0.012030                       # miss rate for WriteReq accesses
system.cpu.dcache.WriteReq_avg_miss_latency::.cpu.data 49351.600753                       # average WriteReq miss latency
system.cpu.dcache.WriteReq_avg_miss_latency::total 49351.600753                       # average WriteReq miss latency
system.cpu.dcache.WriteReq_mshr_hits::.cpu.data           35                       # number of WriteReq MSHR hits
system.cpu.dcache.WriteReq_mshr_hits::total           35                       # number of WriteReq MSHR hits
system.cpu.dcache.WriteReq_mshr_misses::.cpu.data         2089                       # number of WriteReq MSHR misses
system.cpu.dcache.WriteReq_mshr_misses::total         2089                       # number of WriteReq MSHR misses
system.cpu.dcache.WriteReq_mshr_miss_latency::.cpu.data    101745600                       # number of WriteReq MSHR miss cycles
[...]
system.l2cache.demand_mshr_misses::.cpu.data          131                       # number of demand (read+write) MSHR misses
system.l2cache.demand_mshr_misses::.cpu.dcache.prefetcher           37                       # number of demand (read+write) MSHR misses
system.l2cache.demand_mshr_misses::total          414                       # number of demand (read+write) MSHR misses
system.l2cache.overall_mshr_misses::.cpu.inst          246                       # number of overall MSHR misses
system.l2cache.overall_mshr_misses::.cpu.data          131                       # number of overall MSHR misses
system.l2cache.overall_mshr_misses::.cpu.dcache.prefetcher           37                       # number of overall MSHR misses
system.l2cache.overall_mshr_misses::total          414                       # number of overall MSHR misses
system.l2cache.demand_mshr_miss_latency::.cpu.inst     14160800                       # number of demand (read+write) MSHR miss cycles
system.l2cache.demand_mshr_miss_latency::.cpu.data      7766000                       # number of demand (read+write) MSHR miss cycles
system.l2cache.demand_mshr_miss_latency::.cpu.dcache.prefetcher      2509962                       # number of demand (read+write) MSHR miss cycles
system.l2cache.demand_mshr_miss_latency::total     24436762                       # number of demand (read+write) MSHR miss cycles
system.l2cache.overall_mshr_miss_latency::.cpu.inst     14160800                       # number of overall MSHR miss cycles
system.l2cache.overall_mshr_miss_latency::.cpu.data      7766000                       # number of overall MSHR miss cycles
system.l2cache.overall_mshr_miss_latency::.cpu.dcache.prefetcher      2509962                       # number of overall MSHR miss cycles
system.l2cache.overall_mshr_miss_latency::total     24436762                       # number of overall MSHR miss cycles
system.l2cache.demand_mshr_miss_rate::.cpu.inst     0.602941                       # mshr miss rate for demand accesses
system.l2cache.demand_mshr_miss_rate::.cpu.data     0.492481                       # mshr miss rate for demand accesses
system.l2cache.demand_mshr_miss_rate::.cpu.dcache.prefetcher     0.840909                       # mshr miss rate for demand accesses
system.l2cache.demand_mshr_miss_rate::total     0.576602                       # mshr miss rate for demand accesses
system.l2cache.overall_mshr_miss_rate::.cpu.inst     0.602941                       # mshr miss rate for overall accesses
system.l2cache.overall_mshr_miss_rate::.cpu.data     0.492481                       # mshr miss rate for overall accesses
system.l2cache.overall_mshr_miss_rate::.cpu.dcache.prefetcher     0.840909                       # mshr miss rate for overall accesses
system.l2cache.overall_mshr_miss_rate::total     0.576602                       # mshr miss rate for overall accesses
system.l2cache.demand_avg_mshr_miss_latency::.cpu.inst 57564.227642                       # average overall mshr miss latency
system.l2cache.demand_avg_mshr_miss_latency::.cpu.data 59282.442748                       # average overall mshr miss latency
system.l2cache.demand_avg_mshr_miss_latency::.cpu.dcache.prefetcher 67836.810811                       # average overall mshr miss latency
system.l2cache.demand_avg_mshr_miss_latency::total 59025.995169                       # average overall mshr miss latency
system.l2cache.overall_avg_mshr_miss_latency::.cpu.inst 57564.227642                       # average overall mshr miss latency
system.l2cache.overall_avg_mshr_miss_latency::.cpu.data 59282.442748                       # average overall mshr miss latency
system.l2cache.overall_avg_mshr_miss_latency::.cpu.dcache.prefetcher 67836.810811                       # average overall mshr miss latency
system.l2cache.overall_avg_mshr_miss_latency::total 59025.995169                       # average overall mshr miss latency
system.l2cache.replacements                       423                       # number of replacements
system.l2cache.WritebackDirty_hits::.writebacks           89                       # number of WritebackDirty hits
system.l2cache.WritebackDirty_hits::total           89                       # number of WritebackDirty hits
system.l2cache.WritebackDirty_accesses::.writebacks           89                       # number of WritebackDirty accesses(hits+misses)
system.l2cache.WritebackDirty_accesses::total           89                       # number of WritebackDirty accesses(hits+misses)
system.l2cache.CleanEvict_mshr_misses::.writebacks           10                       # number of CleanEvict MSHR misses
system.l2cache.CleanEvict_mshr_misses::total           10                       # number of CleanEvict MSHR misses
system.l2cache.CleanEvict_mshr_miss_rate::.writebacks          inf                       # mshr miss rate for CleanEvict accesses
system.l2cache.CleanEvict_mshr_miss_rate::total          inf                       # mshr miss rate for CleanEvict accesses
system.l2cache.ReadExReq_hits::.cpu.data            9                       # number of ReadExReq hits
system.l2cache.ReadExReq_hits::total                9                       # number of ReadExReq hits
system.l2cache.ReadExReq_misses::.cpu.data            5                       # number of ReadExReq misses
system.l2cache.ReadExReq_misses::total              5                       # number of ReadExReq misses
system.l2cache.ReadExReq_miss_latency::.cpu.data       361200                       # number of ReadExReq miss cycles
system.l2cache.ReadExReq_miss_latency::total       361200                       # number of ReadExReq miss cycles
system.l2cache.ReadExReq_accesses::.cpu.data           14                       # number of ReadExReq accesses(hits+misses)
system.l2cache.ReadExReq_accesses::total           14                       # number of ReadExReq accesses(hits+misses)
system.l2cache.ReadExReq_miss_rate::.cpu.data     0.357143                       # miss rate for ReadExReq accesses
system.l2cache.ReadExReq_miss_rate::total     0.357143                       # miss rate for ReadExReq accesses
system.l2cache.ReadExReq_avg_miss_latency::.cpu.data        72240                       # average ReadExReq miss latency
system.l2cache.ReadExReq_avg_miss_latency::total        72240                       # average ReadExReq miss latency
system.l2cache.ReadExReq_mshr_misses::.cpu.data            5                       # number of ReadExReq MSHR misses
system.l2cache.ReadExReq_mshr_misses::total            5                       # number of ReadExReq MSHR misses
system.l2cache.ReadExReq_mshr_miss_latency::.cpu.data       321200                       # number of ReadExReq MSHR miss cycles
system.l2cache.ReadExReq_mshr_miss_latency::total       321200                       # number of ReadExReq MSHR miss cycles
system.l2cache.ReadExReq_mshr_miss_rate::.cpu.data     0.357143                       # mshr miss rate for ReadExReq accesses
system.l2cache.ReadExReq_mshr_miss_rate::total     0.357143                       # mshr miss rate for ReadExReq accesses
system.l2cache.ReadExReq_avg_mshr_miss_latency::.cpu.data        64240                       # average ReadExReq mshr miss latency
system.l2cache.ReadExReq_avg_mshr_miss_latency::total        64240                       # average ReadExReq mshr miss latency
system.l2cache.ReadSharedReq_hits::.cpu.inst          162                       # number of ReadSharedReq hits
system.l2cache.ReadSharedReq_hits::.cpu.data          126                       # number of ReadSharedReq hits
system.l2cache.ReadSharedReq_hits::.cpu.dcache.prefetcher            7                       # number of ReadSharedReq hits
system.l2cache.ReadSharedReq_hits::total          295                       # number of ReadSharedReq hits
system.l2cache.ReadSharedReq_misses::.cpu.inst          246                       # number of ReadSharedReq misses
system.l2cache.ReadSharedReq_misses::.cpu.data          126                       # number of ReadSharedReq misses
system.l2cache.ReadSharedReq_misses::.cpu.dcache.prefetcher           37                       # number of ReadSharedReq misses
system.l2cache.ReadSharedReq_misses::total          409                       # number of ReadSharedReq misses
system.l2cache.ReadSharedReq_miss_latency::.cpu.inst     16120800                       # number of ReadSharedReq miss cycles
system.l2cache.ReadSharedReq_miss_latency::.cpu.data      8452800                       # number of ReadSharedReq miss cycles
system.l2cache.ReadSharedReq_miss_latency::.cpu.dcache.prefetcher      2805962                       # number of ReadSharedReq miss cycles
system.l2cache.ReadSharedReq_miss_latency::total     27379562                       # number of ReadSharedReq miss cycles
system.l2cache.ReadSharedReq_accesses::.cpu.inst          408                       # number of ReadSharedReq accesses(hits+misses)
system.l2cache.ReadSharedReq_accesses::.cpu.data          252                       # number of ReadSharedReq accesses(hits+misses)
system.l2cache.ReadSharedReq_accesses::.cpu.dcache.prefetcher           44                       # number of ReadSharedReq accesses(hits+misses)
system.l2cache.ReadSharedReq_accesses::total          704                       # number of ReadSharedReq accesses(hits+misses)
system.l2cache.ReadSharedReq_miss_rate::.cpu.inst     0.602941                       # miss rate for ReadSharedReq accesses
system.l2cache.ReadSharedReq_miss_rate::.cpu.data     0.500000                       # miss rate for ReadSharedReq accesses
system.l2cache.ReadSharedReq_miss_rate::.cpu.dcache.prefetcher     0.840909                       # miss rate for ReadSharedReq accesses
system.l2cache.ReadSharedReq_miss_rate::total     0.580966                       # miss rate for ReadSharedReq accesses
system.l2cache.ReadSharedReq_avg_miss_latency::.cpu.inst 65531.707317                       # average ReadSharedReq miss latency
system.l2cache.ReadSharedReq_avg_miss_latency::.cpu.data 67085.714286                       # average ReadSharedReq miss latency
system.l2cache.ReadSharedReq_avg_miss_latency::.cpu.dcache.prefetcher 75836.810811                       # average ReadSharedReq miss latency
system.l2cache.ReadSharedReq_avg_miss_latency::total 66942.694377                       # average ReadSharedReq miss latency
system.l2cache.ReadSharedReq_mshr_misses::.cpu.inst          246                       # number of ReadSharedReq MSHR misses
system.l2cache.ReadSharedReq_mshr_misses::.cpu.data          126                       # number of ReadSharedReq MSHR misses
system.l2cache.ReadSharedReq_mshr_misses::.cpu.dcache.prefetcher           37                       # number of ReadSharedReq MSHR misses
system.l2cache.ReadSharedReq_mshr_misses::total          409                       # number of ReadSharedReq MSHR misses
system.l2cache.ReadSharedReq_mshr_miss_latency::.cpu.inst     14160800                       # number of ReadSharedReq MSHR miss cycles
system.l2cache.ReadSharedReq_mshr_miss_latency::.cpu.data      7444800                       # number of ReadSharedReq MSHR miss cycles
system.l2cache.ReadSharedReq_mshr_miss_latency::.cpu.dcache.prefetcher      2509962                       # number of ReadSharedReq MSHR miss cycles
system.l2cache.ReadSharedReq_mshr_miss_latency::total     24115562                       # number of ReadSharedReq MSHR miss cycles
system.l2cache.ReadSharedReq_mshr_miss_rate::.cpu.inst     0.602941                       # mshr miss rate for ReadSharedReq accesses
system.l2cache.ReadSharedReq_mshr_miss_rate::.cpu.data     0.500000                       # mshr miss rate for ReadSharedReq accesses
system.l2cache.ReadSharedReq_mshr_miss_rate::.cpu.dcache.prefetcher     0.840909                       # mshr miss rate for ReadSharedReq accesses
system.l2cache.ReadSharedReq_mshr_miss_rate::total     0.580966                       # mshr miss rate for ReadSharedReq accesses
system.l2cache.ReadSharedReq_avg_mshr_miss_latency::.cpu.inst 57564.227642                       # average ReadSharedReq mshr miss latency
system.l2cache.ReadSharedReq_avg_mshr_miss_latency::.cpu.data 59085.714286                       # average ReadSharedReq mshr miss latency
system.l2cache.ReadSharedReq_avg_mshr_miss_latency::.cpu.dcache.prefetcher 67836.810811                       # average ReadSharedReq mshr miss latency
system.l2cache.ReadSharedReq_avg_mshr_miss_latency::total 58962.254279                       # average ReadSharedReq mshr miss latency
system.l2cache.prefetcher.pwrStateResidencyTicks::UNDEFINED     30892400                       # Cumulative time (in ticks) in various power states
system.l2cache.tags.pwrStateResidencyTicks::UNDEFINED     30892400                       # Cumulative time (in ticks) in various power states
system.l2cache.tags.tagsinuse                    4096                       # Cycle average of tags in use
system.l2cache.tags.total_refs                  13987                       # Total number of references to valid blocks.
system.l2cache.tags.sampled_refs                 4519                       # Sample count of references to valid blocks.
system.l2cache.tags.avg_refs                 3.095154                       # Average number of references to valid blocks.
system.l2cache.tags.warmup_cycle                    0                       # Cycle when the warmup percentage was hit.
system.l2cache.tags.occ_blocks::.writebacks    40.978571                       # Average occupied blocks per requestor
system.l2cache.tags.occ_blocks::.cpu.inst  1125.945103                       # Average occupied blocks per requestor
system.l2cache.tags.occ_blocks::.cpu.data  1865.373838                       # Average occupied blocks per requestor
system.l2cache.tags.occ_blocks::.cpu.dcache.prefetcher   924.218369                       # Average occupied blocks per requestor
system.l2cache.tags.occ_blocks::.l2cache.prefetcher   139.484119                       # Average occupied blocks per requestor
system.l2cache.tags.occ_percent::.writebacks     0.010005                       # Average percentage of cache occupancy
system.l2cache.tags.occ_percent::.cpu.inst     0.274889                       # Average percentage of cache occupancy
system.l2cache.tags.occ_percent::.cpu.data     0.455414                       # Average percentage of cache occupancy
system.l2cache.tags.occ_percent::.cpu.dcache.prefetcher     0.225639                       # Average percentage of cache occupancy
system.l2cache.tags.occ_percent::.l2cache.prefetcher     0.034054                       # Average percentage of cache occupancy
system.l2cache.tags.occ_percent::total              1                       # Average percentage of cache occupancy
system.l2cache.tags.occ_task_id_blocks::1022          999                       # Occupied blocks per task id
system.l2cache.tags.occ_task_id_blocks::1024         3097                       # Occupied blocks per task id
system.l2cache.tags.age_task_id_blocks_1022::0            6                       # Occupied blocks per task id
system.l2cache.tags.age_task_id_blocks_1022::1           90                       # Occupied blocks per task id
system.l2cache.tags.age_task_id_blocks_1022::2          899                       # Occupied blocks per task id
system.l2cache.tags.age_task_id_blocks_1022::3            4                       # Occupied blocks per task id
system.l2cache.tags.age_task_id_blocks_1024::0          163                       # Occupied blocks per task id
system.l2cache.tags.age_task_id_blocks_1024::1          629                       # Occupied blocks per task id
system.l2cache.tags.age_task_id_blocks_1024::2         2257                       # Occupied blocks per task id
system.l2cache.tags.age_task_id_blocks_1024::3           48                       # Occupied blocks per task id
system.l2cache.tags.occ_task_id_percent::1022     0.243896                       # Percentage of cache occupancy per task id
system.l2cache.tags.occ_task_id_percent::1024     0.756104                       # Percentage of cache occupancy per task id
system.l2cache.tags.tag_accesses                11895                       # Number of tag accesses
system.l2cache.tags.data_accesses               11895                       # Number of data accesses
system.mem_ctrl.pwrStateResidencyTicks::UNDEFINED     30892400                       # Cumulative time (in ticks) in various power states
system.mem_ctrl.bytes_read::.cpu.inst           15680                       # Number of bytes read from this memory
system.mem_ctrl.bytes_read::.cpu.data            8384                       # Number of bytes read from this memory
system.mem_ctrl.bytes_read::.cpu.dcache.prefetcher         2368                       # Number of bytes read from this memory
system.mem_ctrl.bytes_read::total               26432                       # Number of bytes read from this memory
system.mem_ctrl.bytes_inst_read::.cpu.inst        15680                       # Number of instructions bytes read from this memory
system.mem_ctrl.bytes_inst_read::total          15680                       # Number of instructions bytes read from this memory
system.mem_ctrl.bytes_written::.writebacks         1536                       # Number of bytes written to this memory
system.mem_ctrl.bytes_written::total             1536                       # Number of bytes written to this memory
system.mem_ctrl.num_reads::.cpu.inst              245                       # Number of read requests responded to by this memory
system.mem_ctrl.num_reads::.cpu.data              131                       # Number of read requests responded to by this memory
system.mem_ctrl.num_reads::.cpu.dcache.prefetcher           37                       # Number of read requests responded to by this memory
system.mem_ctrl.num_reads::total                  413                       # Number of read requests responded to by this memory
system.mem_ctrl.num_writes::.writebacks            24                       # Number of write requests responded to by this memory
system.mem_ctrl.num_writes::total                  24                       # Number of write requests responded to by this memory
system.mem_ctrl.bw_read::.cpu.inst          507568204                       # Total read bandwidth from this memory (bytes/s)
system.mem_ctrl.bw_read::.cpu.data          271393611                       # Total read bandwidth from this memory (bytes/s)
system.mem_ctrl.bw_read::.cpu.dcache.prefetcher     76653157                       # Total read bandwidth from this memory (bytes/s)
system.mem_ctrl.bw_read::total              855614973                       # Total read bandwidth from this memory (bytes/s)
system.mem_ctrl.bw_inst_read::.cpu.inst     507568204                       # Instruction read bandwidth from this memory (bytes/s)
system.mem_ctrl.bw_inst_read::total         507568204                       # Instruction read bandwidth from this memory (bytes/s)
system.mem_ctrl.bw_write::.writebacks        49720967                       # Write bandwidth from this memory (bytes/s)
system.mem_ctrl.bw_write::total              49720967                       # Write bandwidth from this memory (bytes/s)
system.mem_ctrl.bw_total::.writebacks        49720967                       # Total bandwidth to/from this memory (bytes/s)
system.mem_ctrl.bw_total::.cpu.inst         507568204                       # Total bandwidth to/from this memory (bytes/s)
system.mem_ctrl.bw_total::.cpu.data         271393611                       # Total bandwidth to/from this memory (bytes/s)
system.mem_ctrl.bw_total::.cpu.dcache.prefetcher     76653157                       # Total bandwidth to/from this memory (bytes/s)
system.mem_ctrl.bw_total::total             905335940                       # Total bandwidth to/from this memory (bytes/s)

---------- End Simulation Statistics   ----------
