
---------- Begin Simulation Statistics ----------
final_tick                                  979086680                       # Number of ticks from beginning of simulation (restored from checkpoints and never reset)
host_inst_rate                                 134981                       # Simulator instruction rate (inst/s)
host_mem_usage                               33896228                       # Number of bytes of host memory used
host_op_rate                                   237551                       # Simulator op (including micro ops) rate (op/s)
host_seconds                                    17.34                       # Real time elapsed on the host
host_tick_rate                               56467203                       # Simulator tick rate (ticks/s)
sim_freq                                 1000000000000                       # Frequency of simulated ticks
sim_insts                                     2340426                       # Number of instructions simulated
sim_ops                                       4118905                       # Number of ops (including micro ops) simulated
sim_seconds                                  0.000979                       # Number of seconds simulated
sim_ticks                                   979086680                       # Number of ticks simulated
system.cpu.branchPred.BTBCorrect                    0                       # Number of correct BTB predictions (this stat may not work properly.
system.cpu.branchPred.BTBHitPct              0.000000                       # BTB Hit Percentage
system.cpu.branchPred.BTBHits                       0                       # Number of BTB hits
system.cpu.branchPred.BTBLookups               485419                       # Number of BTB lookups
system.cpu.branchPred.RASInCorrect                 10                       # Number of incorrect RAS predictions.
system.cpu.branchPred.condIncorrect             29357                       # Number of conditional branches incorrect
system.cpu.branchPred.condPredicted            807461                       # Number of conditional branches predicted
system.cpu.branchPred.indirectHits             326824                       # Number of indirect target hits.
system.cpu.branchPred.indirectLookups          485419                       # Number of indirect predictor lookups.
system.cpu.branchPred.indirectMisses           158595                       # Number of indirect misses.
system.cpu.branchPred.lookups                  880719                       # Number of BP lookups
system.cpu.branchPred.loop_predictor.loopPredictorCorrect       328279                       # Number of times the loop predictor is the provider and the prediction is correct
system.cpu.branchPred.loop_predictor.loopPredictorWrong        45784                       # Number of times the loop predictor is the provider and the prediction is wrong
system.cpu.branchPred.tage.bimodalAltMatchProviderCorrect          255                       # Number of times TAGE Alt Match is the bimodal and it is the provider and the prediction is correct
system.cpu.branchPred.tage.bimodalAltMatchProviderWrong           76                       # Number of times TAGE Alt Match is the bimodal and it is the provider and the prediction is wrong
system.cpu.branchPred.tage.tageAltMatchProvider::0        58961                       # TAGE provider for alt match
system.cpu.branchPred.tage.tageAltMatchProvider::1         5049                       # TAGE provider for alt match
system.cpu.branchPred.tage.tageAltMatchProvider::2         5965                       # TAGE provider for alt match
system.cpu.branchPred.tage.tageAltMatchProvider::3         3472                       # TAGE provider for alt match
system.cpu.branchPred.tage.tageAltMatchProvider::4        10553                       # TAGE provider for alt match
system.cpu.branchPred.tage.tageAltMatchProvider::5         5614                       # TAGE provider for alt match
system.cpu.branchPred.tage.tageAltMatchProvider::6         5054                       # TAGE provider for alt match
system.cpu.branchPred.tage.tageAltMatchProvider::7         5329                       # TAGE provider for alt match
system.cpu.branchPred.tage.tageAltMatchProvider::8         9057                       # TAGE provider for alt match
system.cpu.branchPred.tage.tageAltMatchProvider::9         7076                       # TAGE provider for alt match
system.cpu.branchPred.tage.tageAltMatchProvider::10        13586                       # TAGE provider for alt match
system.cpu.branchPred.tage.tageAltMatchProvider::11        62353                       # TAGE provider for alt match
system.cpu.branchPred.tage.tageAltMatchProvider::12            0                       # TAGE provider for alt match
system.cpu.branchPred.tage.tageAltMatchProviderCorrect         2221                       # Number of times TAGE Alt Match is the provider and the prediction is correct
system.cpu.branchPred.tage.tageAltMatchProviderWouldHaveHit         1748                       # Number of times TAGE Longest Match is the provider, the prediction is wrong and Alt Match prediction was correct
system.cpu.branchPred.tage.tageAltMatchProviderWrong         1011                       # Number of times TAGE Alt Match is the provider and the prediction is wrong
system.cpu.branchPred.tage.tageBimodalProviderCorrect       176711                       # Number of times there are no hits on the TAGE tables and the bimodal prediction is correct
system.cpu.branchPred.tage.tageBimodalProviderWrong         1506                       # Number of times there are no hits on the TAGE tables and the bimodal prediction is wrong
system.cpu.branchPred.tage.tageLongestMatchProvider::0            0                       # TAGE provider for longest match
system.cpu.branchPred.tage.tageLongestMatchProvider::1        31444                       # TAGE provider for longest match
system.cpu.branchPred.tage.tageLongestMatchProvider::2        14536                       # TAGE provider for longest match
system.cpu.branchPred.tage.tageLongestMatchProvider::3        17781                       # TAGE provider for longest match
system.cpu.branchPred.tage.tageLongestMatchProvider::4         5328                       # TAGE provider for longest match
system.cpu.branchPred.tage.tageLongestMatchProvider::5         9546                       # TAGE provider for longest match
system.cpu.branchPred.tage.tageLongestMatchProvider::6         5402                       # TAGE provider for longest match
system.cpu.branchPred.tage.tageLongestMatchProvider::7         7581                       # TAGE provider for longest match
system.cpu.branchPred.tage.tageLongestMatchProvider::8         5551                       # TAGE provider for longest match
system.cpu.branchPred.tage.tageLongestMatchProvider::9         8610                       # TAGE provider for longest match
system.cpu.branchPred.tage.tageLongestMatchProvider::10         5114                       # TAGE provider for longest match
system.cpu.branchPred.tage.tageLongestMatchProvider::11         7789                       # TAGE provider for longest match
system.cpu.branchPred.tage.tageLongestMatchProvider::12        73387                       # TAGE provider for longest match
system.cpu.branchPred.tage.tageLongestMatchProviderCorrect       180639                       # Number of times TAGE Longest Match is the provider and the prediction is correct
system.cpu.branchPred.tage.tageLongestMatchProviderWouldHaveHit          619                       # Number of times TAGE Alt Match is the provider, the prediction is wrong and Longest Match prediction was correct
system.cpu.branchPred.tage.tageLongestMatchProviderWrong         8198                       # Number of times TAGE Longest Match is the provider and the prediction is wrong
system.cpu.branchPred.usedRAS                   28974                       # Number of times the RAS was used to get a target.
system.cpu.branchPredindirectMispredicted        15384                       # Number of mispredicted indirect branches.
system.cpu.cc_regfile_reads                   2978420                       # number of cc regfile reads
system.cpu.cc_regfile_writes                  2367124                       # number of cc regfile writes
system.cpu.commit.amos                              0                       # Number of atomic instructions committed
system.cpu.commit.branchMispredicts             29360                       # The number of times a branch was mispredicted
system.cpu.commit.branches                     401484                       # Number of branches committed
system.cpu.commit.bw_lim_events                238853                       # number cycles where commit BW limit reached
system.cpu.commit.commitNonSpecStalls             742                       # The number of times commit has been forced to stall to communicate backwards
system.cpu.commit.commitSquashedInsts         3397053                       # The number of squashed insts skipped by commit
system.cpu.commit.committedInsts              2340426                       # Number of instructions committed
system.cpu.commit.committedOps                4118905                       # Number of ops (including micro ops) committed
system.cpu.commit.committed_per_cycle::samples      2946516                       # Number of insts commited each cycle
system.cpu.commit.committed_per_cycle::mean     1.397890                       # Number of insts commited each cycle
system.cpu.commit.committed_per_cycle::stdev     2.436133                       # Number of insts commited each cycle
system.cpu.commit.committed_per_cycle::underflows            0      0.00%      0.00% # Number of insts commited each cycle
system.cpu.commit.committed_per_cycle::0      1889859     64.14%     64.14% # Number of insts commited each cycle
system.cpu.commit.committed_per_cycle::1       258822      8.78%     72.92% # Number of insts commited each cycle
system.cpu.commit.committed_per_cycle::2       112242      3.81%     76.73% # Number of insts commited each cycle
system.cpu.commit.committed_per_cycle::3       258313      8.77%     85.50% # Number of insts commited each cycle
system.cpu.commit.committed_per_cycle::4        48019      1.63%     87.13% # Number of insts commited each cycle
system.cpu.commit.committed_per_cycle::5       101670      3.45%     90.58% # Number of insts commited each cycle
system.cpu.commit.committed_per_cycle::6        21756      0.74%     91.32% # Number of insts commited each cycle
system.cpu.commit.committed_per_cycle::7        16982      0.58%     91.89% # Number of insts commited each cycle
system.cpu.commit.committed_per_cycle::8       238853      8.11%    100.00% # Number of insts commited each cycle
system.cpu.commit.committed_per_cycle::overflows            0      0.00%    100.00% # Number of insts commited each cycle
system.cpu.commit.committed_per_cycle::min_value            0                       # Number of insts commited each cycle
system.cpu.commit.committed_per_cycle::max_value            8                       # Number of insts commited each cycle
system.cpu.commit.committed_per_cycle::total      2946516                       # Number of insts commited each cycle
system.cpu.commit.fp_insts                      92461                       # Number of committed floating point instructions.
system.cpu.commit.function_calls                13712                       # Number of function calls committed.
system.cpu.commit.int_insts                   4047991                       # Number of committed integer instructions.
system.cpu.commit.loads                        554392                       # Number of loads committed
system.cpu.commit.membars                           1                       # Number of memory barriers committed
system.cpu.commit.op_class_0::No_OpClass        22495      0.55%      0.55% # Class of committed instruction
system.cpu.commit.op_class_0::IntAlu          3231420     78.45%     79.00% # Class of committed instruction
system.cpu.commit.op_class_0::IntMult            4368      0.11%     79.11% # Class of committed instruction
system.cpu.commit.op_class_0::IntDiv            37703      0.92%     80.02% # Class of committed instruction
system.cpu.commit.op_class_0::FloatAdd           3657      0.09%     80.11% # Class of committed instruction
system.cpu.commit.op_class_0::FloatCmp              0      0.00%     80.11% # Class of committed instruction
system.cpu.commit.op_class_0::FloatCvt           1216      0.03%     80.14% # Class of committed instruction
system.cpu.commit.op_class_0::FloatMult             0      0.00%     80.14% # Class of committed instruction
system.cpu.commit.op_class_0::FloatMultAcc            0      0.00%     80.14% # Class of committed instruction
system.cpu.commit.op_class_0::FloatDiv              0      0.00%     80.14% # Class of committed instruction
system.cpu.commit.op_class_0::FloatMisc             0      0.00%     80.14% # Class of committed instruction
system.cpu.commit.op_class_0::FloatSqrt             0      0.00%     80.14% # Class of committed instruction
system.cpu.commit.op_class_0::SimdAdd            6262      0.15%     80.29% # Class of committed instruction
system.cpu.commit.op_class_0::SimdAddAcc            0      0.00%     80.29% # Class of committed instruction
system.cpu.commit.op_class_0::SimdAlu           14325      0.35%     80.64% # Class of committed instruction
system.cpu.commit.op_class_0::SimdCmp               0      0.00%     80.64% # Class of committed instruction
system.cpu.commit.op_class_0::SimdCvt           15282      0.37%     81.01% # Class of committed instruction
system.cpu.commit.op_class_0::SimdMisc          13478      0.33%     81.34% # Class of committed instruction
system.cpu.commit.op_class_0::SimdMult              0      0.00%     81.34% # Class of committed instruction
system.cpu.commit.op_class_0::SimdMultAcc            0      0.00%     81.34% # Class of committed instruction
system.cpu.commit.op_class_0::SimdShift          1162      0.03%     81.37% # Class of committed instruction
system.cpu.commit.op_class_0::SimdShiftAcc            0      0.00%     81.37% # Class of committed instruction
system.cpu.commit.op_class_0::SimdDiv               0      0.00%     81.37% # Class of committed instruction
system.cpu.commit.op_class_0::SimdSqrt              0      0.00%     81.37% # Class of committed instruction
system.cpu.commit.op_class_0::SimdFloatAdd            0      0.00%     81.37% # Class of committed instruction
system.cpu.commit.op_class_0::SimdFloatAlu            0      0.00%     81.37% # Class of committed instruction
system.cpu.commit.op_class_0::SimdFloatCmp            0      0.00%     81.37% # Class of committed instruction
system.cpu.commit.op_class_0::SimdFloatCvt            0      0.00%     81.37% # Class of committed instruction
system.cpu.commit.op_class_0::SimdFloatDiv            0      0.00%     81.37% # Class of committed instruction
system.cpu.commit.op_class_0::SimdFloatMisc            0      0.00%     81.37% # Class of committed instruction
system.cpu.commit.op_class_0::SimdFloatMult            0      0.00%     81.37% # Class of committed instruction
system.cpu.commit.op_class_0::SimdFloatMultAcc            0      0.00%     81.37% # Class of committed instruction
system.cpu.commit.op_class_0::SimdFloatSqrt            0      0.00%     81.37% # Class of committed instruction
system.cpu.commit.op_class_0::SimdReduceAdd            0      0.00%     81.37% # Class of committed instruction
system.cpu.commit.op_class_0::SimdReduceAlu            0      0.00%     81.37% # Class of committed instruction
system.cpu.commit.op_class_0::SimdReduceCmp            0      0.00%     81.37% # Class of committed instruction
system.cpu.commit.op_class_0::SimdFloatReduceAdd            0      0.00%     81.37% # Class of committed instruction
system.cpu.commit.op_class_0::SimdFloatReduceCmp            0      0.00%     81.37% # Class of committed instruction
system.cpu.commit.op_class_0::SimdAes               0      0.00%     81.37% # Class of committed instruction
system.cpu.commit.op_class_0::SimdAesMix            0      0.00%     81.37% # Class of committed instruction
system.cpu.commit.op_class_0::SimdSha1Hash            0      0.00%     81.37% # Class of committed instruction
system.cpu.commit.op_class_0::SimdSha1Hash2            0      0.00%     81.37% # Class of committed instruction
system.cpu.commit.op_class_0::SimdSha256Hash            0      0.00%     81.37% # Class of committed instruction
system.cpu.commit.op_class_0::SimdSha256Hash2            0      0.00%     81.37% # Class of committed instruction
system.cpu.commit.op_class_0::SimdShaSigma2            0      0.00%     81.37% # Class of committed instruction
system.cpu.commit.op_class_0::SimdShaSigma3            0      0.00%     81.37% # Class of committed instruction
system.cpu.commit.op_class_0::SimdPredAlu            0      0.00%     81.37% # Class of committed instruction
system.cpu.commit.op_class_0::MemRead          533080     12.94%     94.31% # Class of committed instruction
system.cpu.commit.op_class_0::MemWrite         200522      4.87%     99.18% # Class of committed instruction
system.cpu.commit.op_class_0::FloatMemRead        21312      0.52%     99.69% # Class of committed instruction
system.cpu.commit.op_class_0::FloatMemWrite        12623      0.31%    100.00% # Class of committed instruction
system.cpu.commit.op_class_0::IprAccess             0      0.00%    100.00% # Class of committed instruction
system.cpu.commit.op_class_0::InstPrefetch            0      0.00%    100.00% # Class of committed instruction
system.cpu.commit.op_class_0::total           4118905                       # Class of committed instruction
system.cpu.commit.refs                         767537                       # Number of memory references committed
system.cpu.commit.swp_count                         0                       # Number of s/w prefetches committed
system.cpu.commit.vec_insts                         0                       # Number of committed Vector instructions.
system.cpu.committedInsts                     2340426                       # Number of Instructions Simulated
system.cpu.committedOps                       4118905                       # Number of Ops (including micro ops) Simulated
system.cpu.cpi                               1.462717                       # CPI: Cycles Per Instruction
system.cpu.cpi_total                         1.462717                       # CPI: Total CPI of All Threads
system.cpu.dcache.prefetcher.num_hwpf_issued            0                       # number of hwpf issued
system.cpu.dcache.prefetcher.pfBufferHit            0                       # number of redundant prefetches already in prefetch queue
system.cpu.dcache.prefetcher.pfIdentified            0                       # number of prefetch candidates identified
system.cpu.dcache.prefetcher.pfInCache              0                       # number of redundant prefetches already in cache/mshr dropped
system.cpu.dcache.prefetcher.pfRemovedFull            0                       # number of prefetches dropped due to prefetch queue size
system.cpu.dcache.prefetcher.pfSpanPage             0                       # number of prefetches that crossed the page
system.cpu.decode.BlockedCycles               1659364                       # Number of cycles decode is blocked
system.cpu.decode.DecodedInsts                7887859                       # Number of instructions handled by decode
system.cpu.decode.IdleCycles                   295457                       # Number of cycles decode is idle
system.cpu.decode.RunCycles                   1135987                       # Number of cycles decode is running
system.cpu.decode.SquashCycles                  29461                       # Number of cycles decode is squashing
system.cpu.decode.SquashedInsts                219944                       # Number of squashed instructions handled by decode
system.cpu.decode.UnblockCycles                151247                       # Number of cycles decode is unblocking
system.cpu.dtb.rdAccesses                      812051                       # TLB accesses on read requests
system.cpu.dtb.rdMisses                          6309                       # TLB misses on read requests
system.cpu.dtb.wrAccesses                      289647                       # TLB accesses on write requests
system.cpu.dtb.wrMisses                          1181                       # TLB misses on write requests
system.cpu.fetch.Branches                      880719                       # Number of branches that fetch encountered
system.cpu.fetch.CacheLines                   1411205                       # Number of cache lines fetched
system.cpu.fetch.Cycles                       3092618                       # Number of cycles fetch has run and was not squashing or blocked
system.cpu.fetch.IcacheSquashes                  2285                       # Number of outstanding Icache misses that were squashed
system.cpu.fetch.Insts                        4795528                       # Number of instructions fetch has processed
system.cpu.fetch.MiscStallCycles                   16                       # Number of cycles fetch has spent waiting on interrupts, or bad addresses, or out of MSHRs
system.cpu.fetch.PendingQuiesceStallCycles           64                       # Number of stall cycles due to pending quiesce instructions
system.cpu.fetch.PendingTrapStallCycles          1014                       # Number of stall cycles due to pending traps
system.cpu.fetch.SquashCycles                   58922                       # Number of cycles fetch has spent squashing
system.cpu.fetch.branchRate                  0.257266                       # Number of branch fetches per cycle
system.cpu.fetch.icacheStallCycles             148343                       # Number of cycles fetch is stalled on an Icache miss
system.cpu.fetch.predictedBranches             355798                       # Number of branches that fetch has predicted taken
system.cpu.fetch.rate                        1.400816                       # Number of inst fetches per cycle
system.cpu.fetch.rateDist::samples            3271516                       # Number of instructions fetched each cycle (Total)
system.cpu.fetch.rateDist::mean              2.658948                       # Number of instructions fetched each cycle (Total)
system.cpu.fetch.rateDist::stdev             3.056181                       # Number of instructions fetched each cycle (Total)
system.cpu.fetch.rateDist::underflows               0      0.00%      0.00% # Number of instructions fetched each cycle (Total)
system.cpu.fetch.rateDist::0                  1498233     45.80%     45.80% # Number of instructions fetched each cycle (Total)
system.cpu.fetch.rateDist::1                   225905      6.91%     52.70% # Number of instructions fetched each cycle (Total)
system.cpu.fetch.rateDist::2                   121151      3.70%     56.40% # Number of instructions fetched each cycle (Total)
system.cpu.fetch.rateDist::3                   300979      9.20%     65.60% # Number of instructions fetched each cycle (Total)
system.cpu.fetch.rateDist::4                   166909      5.10%     70.71% # Number of instructions fetched each cycle (Total)
system.cpu.fetch.rateDist::5                   170031      5.20%     75.90% # Number of instructions fetched each cycle (Total)
system.cpu.fetch.rateDist::6                   171567      5.24%     81.15% # Number of instructions fetched each cycle (Total)
system.cpu.fetch.rateDist::7                   153473      4.69%     85.84% # Number of instructions fetched each cycle (Total)
system.cpu.fetch.rateDist::8                   463268     14.16%    100.00% # Number of instructions fetched each cycle (Total)
system.cpu.fetch.rateDist::overflows                0      0.00%    100.00% # Number of instructions fetched each cycle (Total)
system.cpu.fetch.rateDist::min_value                0                       # Number of instructions fetched each cycle (Total)
system.cpu.fetch.rateDist::max_value                8                       # Number of instructions fetched each cycle (Total)
system.cpu.fetch.rateDist::total              3271516                       # Number of instructions fetched each cycle (Total)
system.cpu.fp_regfile_reads                    212188                       # number of floating regfile reads
system.cpu.fp_regfile_writes                   123608                       # number of floating regfile writes
system.cpu.fuPool.fu_ticks_busy::(0)        228517146                       # Total ticks fu was busy
system.cpu.fuPool.fu_ticks_busy::(0)        220627550                       # Total ticks fu was busy
system.cpu.fuPool.fu_ticks_busy::(0)         18344040                       # Total ticks fu was busy
system.cpu.fuPool.fu_ticks_busy::(1)         18344898                       # Total ticks fu was busy
system.cpu.fuPool.fu_ticks_busy::(2)         18343754                       # Total ticks fu was busy
system.cpu.fuPool.fu_ticks_busy::(3)         18342324                       # Total ticks fu was busy
system.cpu.fuPool.fu_ticks_busy::(4)         18342324                       # Total ticks fu was busy
system.cpu.fuPool.fu_ticks_busy::(5)         18339464                       # Total ticks fu was busy
system.cpu.fuPool.fu_ticks_busy::(6)         18344040                       # Total ticks fu was busy
system.cpu.fuPool.fu_ticks_busy::(7)         18343468                       # Total ticks fu was busy
system.cpu.fuPool.fu_ticks_busy::(8)         18342038                       # Total ticks fu was busy
system.cpu.fuPool.fu_ticks_busy::(9)         18345184                       # Total ticks fu was busy
system.cpu.fuPool.fu_ticks_busy::(10)        18341466                       # Total ticks fu was busy
system.cpu.fuPool.fu_ticks_busy::(11)        18339464                       # Total ticks fu was busy
system.cpu.fuPool.fu_ticks_busy::(0)         18341466                       # Total ticks fu was busy
system.cpu.fuPool.fu_ticks_busy::(0)          6523374                       # Total ticks fu was busy
system.cpu.fuPool.fu_ticks_busy::(1)          6525662                       # Total ticks fu was busy
system.cpu.fuPool.fu_ticks_busy::(2)          6527950                       # Total ticks fu was busy
system.cpu.fuPool.fu_ticks_busy::(3)          6525090                       # Total ticks fu was busy
system.cpu.fuPool.fu_ticks_busy::(4)          6526234                       # Total ticks fu was busy
system.cpu.fuPool.fu_ticks_busy::(5)          6527378                       # Total ticks fu was busy
system.cpu.fuPool.fu_ticks_busy::(6)          6522516                       # Total ticks fu was busy
system.cpu.fuPool.fu_ticks_busy::(7)          6525376                       # Total ticks fu was busy
system.cpu.fuPool.fu_ticks_busy::(8)          6522802                       # Total ticks fu was busy
system.cpu.fuPool.fu_ticks_busy::(9)          6526234                       # Total ticks fu was busy
system.cpu.fuPool.fu_ticks_busy::(10)         6524232                       # Total ticks fu was busy
system.cpu.fuPool.fu_ticks_busy::(11)         6523374                       # Total ticks fu was busy
system.cpu.fuPool.fu_ticks_busy::(0)        216930142                       # Total ticks fu was busy
system.cpu.fuPool.fu_ticks_busy::(0)        215867080                       # Total ticks fu was busy
system.cpu.fuPool.fu_ticks_busy::(1)        215547618                       # Total ticks fu was busy
system.cpu.fuPool.fu_ticks_busy::(2)        215703202                       # Total ticks fu was busy
system.cpu.fuPool.fu_ticks_busy::(0)          6525376                       # Total ticks fu was busy
system.cpu.fuPool.fu_ticks_busy::total     1636472266                       # Total ticks fu was busy
system.cpu.icache.prefetcher.num_hwpf_issued            0                       # number of hwpf issued
system.cpu.icache.prefetcher.pfBufferHit            0                       # number of redundant prefetches already in prefetch queue
system.cpu.icache.prefetcher.pfIdentified            0                       # number of prefetch candidates identified
system.cpu.icache.prefetcher.pfInCache              0                       # number of redundant prefetches already in cache/mshr dropped
system.cpu.icache.prefetcher.pfRemovedFull            0                       # number of prefetches dropped due to prefetch queue size
system.cpu.icache.prefetcher.pfSpanPage             0                       # number of prefetches that crossed the page
system.cpu.idleCycles                          151865                       # Total number of cycles that the CPU has spent unscheduled due to idling
system.cpu.iew.branchMispredicts                56669                       # Number of branch mispredicts detected at execute
system.cpu.iew.exec_branches                   508072                       # Number of branches executed
system.cpu.iew.exec_nop                             0                       # number of nop insts executed
system.cpu.iew.exec_rate                     1.676936                       # Inst execution rate
system.cpu.iew.exec_refs                      1105210                       # number of memory reference insts executed
system.cpu.iew.exec_stores                     289482                       # Number of stores executed
system.cpu.iew.exec_swp                             0                       # number of swp insts executed
system.cpu.iew.iewBlockCycles                  897326                       # Number of cycles IEW is blocking
system.cpu.iew.iewDispLoadInsts                909775                       # Number of dispatched load instructions
system.cpu.iew.iewDispNonSpecInsts               1177                       # Number of dispatched non-speculative instructions
system.cpu.iew.iewDispSquashedInsts             34669                       # Number of squashed instructions skipped by dispatch
system.cpu.iew.iewDispStoreInsts               326858                       # Number of dispatched store instructions
system.cpu.iew.iewDispatchedInsts             6640396                       # Number of instructions dispatched to IQ
system.cpu.iew.iewExecLoadInsts                815728                       # Number of load instructions executed
system.cpu.iew.iewExecSquashedInsts             26568                       # Number of squashed instructions skipped in execute
system.cpu.iew.iewExecutedInsts               5740791                       # Number of executed instructions
system.cpu.iew.iewIQFullEvents                   3747                       # Number of times the IQ has become full, causing a stall
system.cpu.iew.iewIdleCycles                        0                       # Number of cycles IEW is idle
system.cpu.iew.iewLSQFullEvents                 23719                       # Number of times the LSQ has become full, causing a stall
system.cpu.iew.iewSquashCycles                  29461                       # Number of cycles IEW is squashing
system.cpu.iew.iewUnblockCycles                 34332                       # Number of cycles IEW is unblocking
system.cpu.iew.lsq.thread0.blockedLoads             0                       # Number of blocked loads due to partial load-store forwarding
system.cpu.iew.lsq.thread0.cacheBlocked          1168                       # Number of times an access to memory failed due to the cache being blocked
system.cpu.iew.lsq.thread0.forwLoads            99175                       # Number of loads that had data forwarded from stores
system.cpu.iew.lsq.thread0.ignoredResponses           12                       # Number of memory responses ignored because the instruction is squashed
system.cpu.iew.lsq.thread0.invAddrLoads             0                       # Number of loads ignored due to an invalid address
system.cpu.iew.lsq.thread0.invAddrSwpfs             0                       # Number of software prefetches ignored due to an invalid address
system.cpu.iew.lsq.thread0.memOrderViolation          255                       # Number of memory ordering violations
system.cpu.iew.lsq.thread0.rescheduledLoads          839                       # Number of loads that were rescheduled
system.cpu.iew.lsq.thread0.squashedLoads       355380                       # Number of loads squashed
system.cpu.iew.lsq.thread0.squashedStores       113709                       # Number of stores squashed
system.cpu.iew.memOrderViolationEvents            255                       # Number of memory order violations
system.cpu.iew.predictedNotTakenIncorrect        46986                       # Number of branches that were predicted not taken incorrectly
system.cpu.iew.predictedTakenIncorrect           9683                       # Number of branches that were predicted taken incorrectly
system.cpu.iew.wb_consumers                   7926524                       # num instructions consuming a value
system.cpu.iew.wb_count                       5691536                       # cumulative count of insts written-back
system.cpu.iew.wb_fanout                     0.563476                       # average fanout of values written-back
system.cpu.iew.wb_producers                   4466403                       # num instructions producing a value
system.cpu.iew.wb_rate                       1.662548                       # insts written-back per cycle
system.cpu.iew.wb_sent                        5714285                       # cumulative count of insts sent to commit
system.cpu.int_regfile_reads                  8442274                       # number of integer regfile reads
system.cpu.int_regfile_writes                 4845902                       # number of integer regfile writes
system.cpu.ipc                               0.683659                       # IPC: Instructions Per Cycle
system.cpu.ipc_total                         0.683659                       # IPC: Total IPC of All Threads
system.cpu.iq.FU_type_0::No_OpClass             45428      0.79%      0.79% # Type of FU issued
system.cpu.iq.FU_type_0::IntAlu               4454737     77.24%     78.03% # Type of FU issued
system.cpu.iq.FU_type_0::IntMult                 4691      0.08%     78.11% # Type of FU issued
system.cpu.iq.FU_type_0::IntDiv                 42188      0.73%     78.84% # Type of FU issued
system.cpu.iq.FU_type_0::FloatAdd                8527      0.15%     78.99% # Type of FU issued
system.cpu.iq.FU_type_0::FloatCmp                   0      0.00%     78.99% # Type of FU issued
system.cpu.iq.FU_type_0::FloatCvt                1216      0.02%     79.01% # Type of FU issued
system.cpu.iq.FU_type_0::FloatMult                  0      0.00%     79.01% # Type of FU issued
system.cpu.iq.FU_type_0::FloatMultAcc               0      0.00%     79.01% # Type of FU issued
system.cpu.iq.FU_type_0::FloatDiv                   0      0.00%     79.01% # Type of FU issued
system.cpu.iq.FU_type_0::FloatMisc                  0      0.00%     79.01% # Type of FU issued
system.cpu.iq.FU_type_0::FloatSqrt                  0      0.00%     79.01% # Type of FU issued
system.cpu.iq.FU_type_0::SimdAdd                 8843      0.15%     79.16% # Type of FU issued
system.cpu.iq.FU_type_0::SimdAddAcc                 0      0.00%     79.16% # Type of FU issued
system.cpu.iq.FU_type_0::SimdAlu                27094      0.47%     79.63% # Type of FU issued
system.cpu.iq.FU_type_0::SimdCmp                   13      0.00%     79.63% # Type of FU issued
system.cpu.iq.FU_type_0::SimdCvt                25274      0.44%     80.07% # Type of FU issued
system.cpu.iq.FU_type_0::SimdMisc               15521      0.27%     80.34% # Type of FU issued
system.cpu.iq.FU_type_0::SimdMult                   0      0.00%     80.34% # Type of FU issued
system.cpu.iq.FU_type_0::SimdMultAcc                0      0.00%     80.34% # Type of FU issued
system.cpu.iq.FU_type_0::SimdShift               3485      0.06%     80.40% # Type of FU issued
system.cpu.iq.FU_type_0::SimdShiftAcc               0      0.00%     80.40% # Type of FU issued
system.cpu.iq.FU_type_0::SimdDiv                    0      0.00%     80.40% # Type of FU issued
system.cpu.iq.FU_type_0::SimdSqrt                   0      0.00%     80.40% # Type of FU issued
system.cpu.iq.FU_type_0::SimdFloatAdd               0      0.00%     80.40% # Type of FU issued
system.cpu.iq.FU_type_0::SimdFloatAlu               0      0.00%     80.40% # Type of FU issued
system.cpu.iq.FU_type_0::SimdFloatCmp               0      0.00%     80.40% # Type of FU issued
system.cpu.iq.FU_type_0::SimdFloatCvt               0      0.00%     80.40% # Type of FU issued
system.cpu.iq.FU_type_0::SimdFloatDiv               0      0.00%     80.40% # Type of FU issued
system.cpu.iq.FU_type_0::SimdFloatMisc              0      0.00%     80.40% # Type of FU issued
system.cpu.iq.FU_type_0::SimdFloatMult              0      0.00%     80.40% # Type of FU issued
system.cpu.iq.FU_type_0::SimdFloatMultAcc            0      0.00%     80.40% # Type of FU issued
system.cpu.iq.FU_type_0::SimdFloatSqrt              0      0.00%     80.40% # Type of FU issued
system.cpu.iq.FU_type_0::SimdReduceAdd              0      0.00%     80.40% # Type of FU issued
system.cpu.iq.FU_type_0::SimdReduceAlu              0      0.00%     80.40% # Type of FU issued
system.cpu.iq.FU_type_0::SimdReduceCmp              0      0.00%     80.40% # Type of FU issued
system.cpu.iq.FU_type_0::SimdFloatReduceAdd            0      0.00%     80.40% # Type of FU issued
system.cpu.iq.FU_type_0::SimdFloatReduceCmp            0      0.00%     80.40% # Type of FU issued
system.cpu.iq.FU_type_0::SimdAes                    0      0.00%     80.40% # Type of FU issued
system.cpu.iq.FU_type_0::SimdAesMix                 0      0.00%     80.40% # Type of FU issued
system.cpu.iq.FU_type_0::SimdSha1Hash               0      0.00%     80.40% # Type of FU issued
system.cpu.iq.FU_type_0::SimdSha1Hash2              0      0.00%     80.40% # Type of FU issued
system.cpu.iq.FU_type_0::SimdSha256Hash             0      0.00%     80.40% # Type of FU issued
system.cpu.iq.FU_type_0::SimdSha256Hash2            0      0.00%     80.40% # Type of FU issued
system.cpu.iq.FU_type_0::SimdShaSigma2              0      0.00%     80.40% # Type of FU issued
system.cpu.iq.FU_type_0::SimdShaSigma3              0      0.00%     80.40% # Type of FU issued
system.cpu.iq.FU_type_0::SimdPredAlu                0      0.00%     80.40% # Type of FU issued
system.cpu.iq.FU_type_0::MemRead               787140     13.65%     94.05% # Type of FU issued
system.cpu.iq.FU_type_0::MemWrite              276542      4.79%     98.84% # Type of FU issued
system.cpu.iq.FU_type_0::FloatMemRead           46615      0.81%     99.65% # Type of FU issued
system.cpu.iq.FU_type_0::FloatMemWrite          20053      0.35%    100.00% # Type of FU issued
system.cpu.iq.FU_type_0::IprAccess                  0      0.00%    100.00% # Type of FU issued
system.cpu.iq.FU_type_0::InstPrefetch               0      0.00%    100.00% # Type of FU issued
system.cpu.iq.FU_type_0::total                5767367                       # Type of FU issued
system.cpu.iq.fp_alu_accesses                  176985                       # Number of floating point alu accesses
system.cpu.iq.fp_inst_queue_reads              339780                       # Number of floating instruction queue reads
system.cpu.iq.fp_inst_queue_wakeup_accesses       152370                       # Number of floating instruction queue wakeup accesses
system.cpu.iq.fp_inst_queue_writes             397909                       # Number of floating instruction queue writes
system.cpu.iq.fu_busy_cnt                      116016                       # FU busy when requested
system.cpu.iq.fu_busy_rate                   0.020116                       # FU busy rate (busy events/executed inst)
system.cpu.iq.fu_full::No_OpClass                   0      0.00%      0.00% # attempts to use FU when none available
system.cpu.iq.fu_full::IntAlu                   99116     85.43%     85.43% # attempts to use FU when none available
system.cpu.iq.fu_full::IntMult                    389      0.34%     85.77% # attempts to use FU when none available
system.cpu.iq.fu_full::IntDiv                     123      0.11%     85.87% # attempts to use FU when none available
system.cpu.iq.fu_full::FloatAdd                  4193      3.61%     89.49% # attempts to use FU when none available
system.cpu.iq.fu_full::FloatCmp                     0      0.00%     89.49% # attempts to use FU when none available
system.cpu.iq.fu_full::FloatCvt                   530      0.46%     89.95% # attempts to use FU when none available
system.cpu.iq.fu_full::FloatMult                    0      0.00%     89.95% # attempts to use FU when none available
system.cpu.iq.fu_full::FloatMultAcc                 0      0.00%     89.95% # attempts to use FU when none available
system.cpu.iq.fu_full::FloatDiv                     0      0.00%     89.95% # attempts to use FU when none available
system.cpu.iq.fu_full::FloatMisc                    0      0.00%     89.95% # attempts to use FU when none available
system.cpu.iq.fu_full::FloatSqrt                    0      0.00%     89.95% # attempts to use FU when none available
system.cpu.iq.fu_full::SimdAdd                     14      0.01%     89.96% # attempts to use FU when none available
system.cpu.iq.fu_full::SimdAddAcc                   0      0.00%     89.96% # attempts to use FU when none available
system.cpu.iq.fu_full::SimdAlu                   1714      1.48%     91.43% # attempts to use FU when none available
system.cpu.iq.fu_full::SimdCmp                      0      0.00%     91.43% # attempts to use FU when none available
system.cpu.iq.fu_full::SimdCvt                   8753      7.54%     98.98% # attempts to use FU when none available
system.cpu.iq.fu_full::SimdMisc                  1151      0.99%     99.97% # attempts to use FU when none available
system.cpu.iq.fu_full::SimdMult                     0      0.00%     99.97% # attempts to use FU when none available
system.cpu.iq.fu_full::SimdMultAcc                  0      0.00%     99.97% # attempts to use FU when none available
system.cpu.iq.fu_full::SimdShift                   33      0.03%    100.00% # attempts to use FU when none available
system.cpu.iq.fu_full::SimdShiftAcc                 0      0.00%    100.00% # attempts to use FU when none available
system.cpu.iq.fu_full::SimdDiv                      0      0.00%    100.00% # attempts to use FU when none available
system.cpu.iq.fu_full::SimdSqrt                     0      0.00%    100.00% # attempts to use FU when none available
system.cpu.iq.fu_full::SimdFloatAdd                 0      0.00%    100.00% # attempts to use FU when none available
system.cpu.iq.fu_full::SimdFloatAlu                 0      0.00%    100.00% # attempts to use FU when none available
system.cpu.iq.fu_full::SimdFloatCmp                 0      0.00%    100.00% # attempts to use FU when none available
system.cpu.iq.fu_full::SimdFloatCvt                 0      0.00%    100.00% # attempts to use FU when none available
system.cpu.iq.fu_full::SimdFloatDiv                 0      0.00%    100.00% # attempts to use FU when none available
system.cpu.iq.fu_full::SimdFloatMisc                0      0.00%    100.00% # attempts to use FU when none available
system.cpu.iq.fu_full::SimdFloatMult                0      0.00%    100.00% # attempts to use FU when none available
system.cpu.iq.fu_full::SimdFloatMultAcc             0      0.00%    100.00% # attempts to use FU when none available
system.cpu.iq.fu_full::SimdFloatSqrt                0      0.00%    100.00% # attempts to use FU when none available
system.cpu.iq.fu_full::SimdReduceAdd                0      0.00%    100.00% # attempts to use FU when none available
system.cpu.iq.fu_full::SimdReduceAlu                0      0.00%    100.00% # attempts to use FU when none available
system.cpu.iq.fu_full::SimdReduceCmp                0      0.00%    100.00% # attempts to use FU when none available
system.cpu.iq.fu_full::SimdFloatReduceAdd            0      0.00%    100.00% # attempts to use FU when none available
system.cpu.iq.fu_full::SimdFloatReduceCmp            0      0.00%    100.00% # attempts to use FU when none available
system.cpu.iq.fu_full::SimdAes                      0      0.00%    100.00% # attempts to use FU when none available
system.cpu.iq.fu_full::SimdAesMix                   0      0.00%    100.00% # attempts to use FU when none available
system.cpu.iq.fu_full::SimdSha1Hash                 0      0.00%    100.00% # attempts to use FU when none available
system.cpu.iq.fu_full::SimdSha1Hash2                0      0.00%    100.00% # attempts to use FU when none available
system.cpu.iq.fu_full::SimdSha256Hash               0      0.00%    100.00% # attempts to use FU when none available
system.cpu.iq.fu_full::SimdSha256Hash2              0      0.00%    100.00% # attempts to use FU when none available
system.cpu.iq.fu_full::SimdShaSigma2                0      0.00%    100.00% # attempts to use FU when none available
system.cpu.iq.fu_full::SimdShaSigma3                0      0.00%    100.00% # attempts to use FU when none available
system.cpu.iq.fu_full::SimdPredAlu                  0      0.00%    100.00% # attempts to use FU when none available
system.cpu.iq.fu_full::MemRead                      0      0.00%    100.00% # attempts to use FU when none available
system.cpu.iq.fu_full::MemWrite                     0      0.00%    100.00% # attempts to use FU when none available
system.cpu.iq.fu_full::FloatMemRead                 0      0.00%    100.00% # attempts to use FU when none available
system.cpu.iq.fu_full::FloatMemWrite                0      0.00%    100.00% # attempts to use FU when none available
system.cpu.iq.fu_full::IprAccess                    0      0.00%    100.00% # attempts to use FU when none available
system.cpu.iq.fu_full::InstPrefetch                 0      0.00%    100.00% # attempts to use FU when none available
system.cpu.iq.int_alu_accesses                5660970                       # Number of integer alu accesses
system.cpu.iq.int_inst_queue_reads           14600661                       # Number of integer instruction queue reads
system.cpu.iq.int_inst_queue_wakeup_accesses      5539166                       # Number of integer instruction queue wakeup accesses
system.cpu.iq.int_inst_queue_writes           8764190                       # Number of integer instruction queue writes
system.cpu.iq.iqInstsAdded                    6638612                       # Number of instructions added to the IQ (excludes non-spec)
system.cpu.iq.iqInstsIssued                   5767367                       # Number of instructions issued
system.cpu.iq.iqNonSpecInstsAdded                1784                       # Number of non-speculative instructions added to the IQ
system.cpu.iq.iqSquashedInstsExamined         2521458                       # Number of squashed instructions iterated over during squash; mainly for profiling
system.cpu.iq.iqSquashedInstsIssued             18183                       # Number of squashed instructions issued
system.cpu.iq.iqSquashedNonSpecRemoved           1042                       # Number of squashed non-spec instructions that were removed
system.cpu.iq.iqSquashedOperandsExamined      3479466                       # Number of squashed operands that are examined and possibly removed from graph
system.cpu.iq.issued_per_cycle::samples       3271516                       # Number of insts issued each cycle
system.cpu.iq.issued_per_cycle::mean         1.762903                       # Number of insts issued each cycle
system.cpu.iq.issued_per_cycle::stdev        2.421666                       # Number of insts issued each cycle
system.cpu.iq.issued_per_cycle::underflows            0      0.00%      0.00% # Number of insts issued each cycle
system.cpu.iq.issued_per_cycle::0             1828986     55.91%     55.91% # Number of insts issued each cycle
system.cpu.iq.issued_per_cycle::1              173364      5.30%     61.21% # Number of insts issued each cycle
system.cpu.iq.issued_per_cycle::2              251824      7.70%     68.90% # Number of insts issued each cycle
system.cpu.iq.issued_per_cycle::3              248847      7.61%     76.51% # Number of insts issued each cycle
system.cpu.iq.issued_per_cycle::4              196959      6.02%     82.53% # Number of insts issued each cycle
system.cpu.iq.issued_per_cycle::5              178349      5.45%     87.98% # Number of insts issued each cycle
system.cpu.iq.issued_per_cycle::6              188816      5.77%     93.75% # Number of insts issued each cycle
system.cpu.iq.issued_per_cycle::7              103631      3.17%     96.92% # Number of insts issued each cycle
system.cpu.iq.issued_per_cycle::8              100740      3.08%    100.00% # Number of insts issued each cycle
system.cpu.iq.issued_per_cycle::overflows            0      0.00%    100.00% # Number of insts issued each cycle
system.cpu.iq.issued_per_cycle::min_value            0                       # Number of insts issued each cycle
system.cpu.iq.issued_per_cycle::max_value            8                       # Number of insts issued each cycle
system.cpu.iq.issued_per_cycle::total         3271516                       # Number of insts issued each cycle
system.cpu.iq.rate                           1.684699                       # Inst issue rate
system.cpu.iq.vec_alu_accesses                      0                       # Number of vector alu accesses
system.cpu.iq.vec_inst_queue_reads                  0                       # Number of vector instruction queue reads
system.cpu.iq.vec_inst_queue_wakeup_accesses            0                       # Number of vector instruction queue wakeup accesses
system.cpu.iq.vec_inst_queue_writes                 0                       # Number of vector instruction queue writes
system.cpu.itb.rdAccesses                           0                       # TLB accesses on read requests
system.cpu.itb.rdMisses                             0                       # TLB misses on read requests
system.cpu.itb.wrAccesses                     1411298                       # TLB accesses on write requests
system.cpu.itb.wrMisses                           348                       # TLB misses on write requests
system.cpu.memDep0.conflictingLoads             50193                       # Number of conflicting loads.
system.cpu.memDep0.conflictingStores            28014                       # Number of conflicting stores.
system.cpu.memDep0.insertedLoads               909775                       # Number of loads inserted to the mem dependence unit.
system.cpu.memDep0.insertedStores              326858                       # Number of stores inserted to the mem dependence unit.
system.cpu.misc_regfile_reads                 2249971                       # number of misc regfile reads
system.cpu.misc_regfile_writes                    684                       # number of misc regfile writes
system.cpu.mmucache.mmubus.snoop_filter.hit_multi_requests            0                       # Number of requests hitting in the snoop filter with multiple (>1) holders of the requested data.
system.cpu.mmucache.mmubus.snoop_filter.hit_multi_snoops            0                       # Number of snoops hitting in the snoop filter with multiple (>1) holders of the requested data.
system.cpu.mmucache.mmubus.snoop_filter.hit_single_requests            0                       # Number of requests hitting in the snoop filter with a single holder of the requested data.
system.cpu.mmucache.mmubus.snoop_filter.hit_single_snoops            0                       # Number of snoops hitting in the snoop filter with a single holder of the requested data.
system.cpu.mmucache.mmubus.snoop_filter.tot_requests            0                       # Total number of requests made to the snoop filter.
system.cpu.mmucache.mmubus.snoop_filter.tot_snoops            0                       # Total number of snoops made to the snoop filter.
system.cpu.mmucache.prefetcher.num_hwpf_issued            0                       # number of hwpf issued
system.cpu.mmucache.prefetcher.pfBufferHit            0                       # number of redundant prefetches already in prefetch queue
system.cpu.mmucache.prefetcher.pfIdentified            0                       # number of prefetch candidates identified
system.cpu.mmucache.prefetcher.pfInCache            0                       # number of redundant prefetches already in cache/mshr dropped
system.cpu.mmucache.prefetcher.pfRemovedFull            0                       # number of prefetches dropped due to prefetch queue size
system.cpu.mmucache.prefetcher.pfSpanPage            0                       # number of prefetches that crossed the page
system.cpu.numCycles                          3423381                       # number of cpu cycles simulated
system.cpu.numWorkItemsCompleted                    0                       # number of work items this cpu completed
system.cpu.numWorkItemsStarted                      0                       # number of work items this cpu started
system.cpu.process.numSyscalls                     57                       # Number of system calls
system.cpu.rename.BlockCycles                 1316087                       # Number of cycles rename is blocking
system.cpu.rename.CommittedMaps               5529470                       # Number of HB maps that are committed
system.cpu.rename.FullRegisterEvents            63703                       # Number of times there has been no free registers
system.cpu.rename.IQFullEvents                 119398                       # Number of times rename has blocked due to IQ full
system.cpu.rename.IdleCycles                   401517                       # Number of cycles rename is idle
system.cpu.rename.ROBFullEvents                 19510                       # Number of times rename has blocked due to ROB full
system.cpu.rename.RenameLookups              19939475                       # Number of register rename lookups that rename has made
system.cpu.rename.RenamedInsts                7746818                       # Number of instructions processed by rename
system.cpu.rename.RenamedOperands            10047225                       # Number of destination operands rename has renamed
system.cpu.rename.RunCycles                   1170258                       # Number of cycles rename is running
system.cpu.rename.SQFullEvents                  83075                       # Number of times rename has blocked due to SQ full
system.cpu.rename.SquashCycles                  29461                       # Number of cycles rename is squashing
system.cpu.rename.UnblockCycles                312804                       # Number of cycles rename is unblocking
system.cpu.rename.UndoneMaps                  4517656                       # Number of HB maps that are undone due to squashing
system.cpu.rename.fp_rename_lookups            501107                       # Number of floating rename lookups
system.cpu.rename.int_rename_lookups         11885094                       # Number of integer rename lookups
system.cpu.rename.serializeStallCycles          41389                       # count of cycles rename stalled for serializing inst
system.cpu.rename.serializingInsts                947                       # count of serializing insts renamed
system.cpu.rename.skidInsts                    653179                       # count of insts added to the skid buffer
system.cpu.rename.tempSerializingInsts            931                       # count of temporary serializing insts renamed
system.cpu.rob.rob_reads                     10223621                       # The number of ROB reads
system.cpu.rob.rob_writes                    15360314                       # The number of ROB writes
system.cpu.timesIdled                             935                       # Number of times that the entire CPU went into an idle state and unscheduled itself
system.l2bus.snoop_filter.hit_multi_requests           17                       # Number of requests hitting in the snoop filter with multiple (>1) holders of the requested data.
system.l2bus.snoop_filter.hit_multi_snoops            0                       # Number of snoops hitting in the snoop filter with multiple (>1) holders of the requested data.
system.l2bus.snoop_filter.hit_single_requests        20738                       # Number of requests hitting in the snoop filter with a single holder of the requested data.
system.l2bus.snoop_filter.hit_single_snoops           42                       # Number of snoops hitting in the snoop filter with a single holder of the requested data.
system.l2bus.snoop_filter.tot_requests          42496                       # Total number of requests made to the snoop filter.
system.l2bus.snoop_filter.tot_snoops               42                       # Total number of snoops made to the snoop filter.
system.l2cache.prefetcher.num_hwpf_issued            0                       # number of hwpf issued
system.l2cache.prefetcher.pfBufferHit               0                       # number of redundant prefetches already in prefetch queue
system.l2cache.prefetcher.pfIdentified              0                       # number of prefetch candidates identified
system.l2cache.prefetcher.pfInCache                 0                       # number of redundant prefetches already in cache/mshr dropped
system.l2cache.prefetcher.pfRemovedFull             0                       # number of prefetches dropped due to prefetch queue size
system.l2cache.prefetcher.pfSpanPage                0                       # number of prefetches that crossed the page
system.l3bus.snoop_filter.hit_multi_requests            0                       # Number of requests hitting in the snoop filter with multiple (>1) holders of the requested data.
system.l3bus.snoop_filter.hit_multi_snoops            0                       # Number of snoops hitting in the snoop filter with multiple (>1) holders of the requested data.
system.l3bus.snoop_filter.hit_single_requests          296                       # Number of requests hitting in the snoop filter with a single holder of the requested data.
system.l3bus.snoop_filter.hit_single_snoops            0                       # Number of snoops hitting in the snoop filter with a single holder of the requested data.
system.l3bus.snoop_filter.tot_requests          12290                       # Total number of requests made to the snoop filter.
system.l3bus.snoop_filter.tot_snoops                0                       # Total number of snoops made to the snoop filter.
system.l3cache.prefetcher.num_hwpf_issued            0                       # number of hwpf issued
system.l3cache.prefetcher.pfBufferHit               0                       # number of redundant prefetches already in prefetch queue
system.l3cache.prefetcher.pfIdentified              0                       # number of prefetch candidates identified
system.l3cache.prefetcher.pfInCache                 0                       # number of redundant prefetches already in cache/mshr dropped
system.l3cache.prefetcher.pfRemovedFull             0                       # number of prefetches dropped due to prefetch queue size
system.l3cache.prefetcher.pfSpanPage                0                       # number of prefetches that crossed the page
system.membus.snoop_filter.hit_multi_requests            0                       # Number of requests hitting in the snoop filter with multiple (>1) holders of the requested data.
system.membus.snoop_filter.hit_multi_snoops            0                       # Number of snoops hitting in the snoop filter with multiple (>1) holders of the requested data.
system.membus.snoop_filter.hit_single_requests          248                       # Number of requests hitting in the snoop filter with a single holder of the requested data.
system.membus.snoop_filter.hit_single_snoops            0                       # Number of snoops hitting in the snoop filter with a single holder of the requested data.
system.membus.snoop_filter.tot_requests         12232                       # Total number of requests made to the snoop filter.
system.membus.snoop_filter.tot_snoops               0                       # Total number of snoops made to the snoop filter.
system.membus.pwrStateResidencyTicks::UNDEFINED    979086680                       # Cumulative time (in ticks) in various power states
system.membus.trans_dist::ReadResp              10465                       # Transaction distribution
system.membus.trans_dist::CleanEvict              247                       # Transaction distribution
system.membus.trans_dist::ReadExReq              1520                       # Transaction distribution
system.membus.trans_dist::ReadExResp             1520                       # Transaction distribution
system.membus.trans_dist::ReadCleanReq          10465                       # Transaction distribution
system.membus.pkt_count_system.l3cache.mem_side::system.mem_cntrls1.port        24217                       # Packet count per connected master and slave (bytes)
system.membus.pkt_count_system.l3cache.mem_side::total        24217                       # Packet count per connected master and slave (bytes)
system.membus.pkt_count::total                  24217                       # Packet count per connected master and slave (bytes)
system.membus.pkt_size_system.l3cache.mem_side::system.mem_cntrls1.port       767040                       # Cumulative packet size per connected master and slave (bytes)
system.membus.pkt_size_system.l3cache.mem_side::total       767040                       # Cumulative packet size per connected master and slave (bytes)
system.membus.pkt_size::total                  767040                       # Cumulative packet size per connected master and slave (bytes)
system.membus.snoops                                0                       # Total snoops (count)
system.membus.snoopTraffic                          0                       # Total snoop traffic (bytes)
system.membus.snoop_fanout::samples             11985                       # Request fanout histogram
system.membus.snoop_fanout::mean                    0                       # Request fanout histogram
system.membus.snoop_fanout::stdev                   0                       # Request fanout histogram
system.membus.snoop_fanout::underflows              0      0.00%      0.00% # Request fanout histogram
system.membus.snoop_fanout::0                   11985    100.00%    100.00% # Request fanout histogram
system.membus.snoop_fanout::1                       0      0.00%    100.00% # Request fanout histogram
system.membus.snoop_fanout::overflows               0      0.00%    100.00% # Request fanout histogram
system.membus.snoop_fanout::min_value               0                       # Request fanout histogram
system.membus.snoop_fanout::max_value               0                       # Request fanout histogram
system.membus.snoop_fanout::total               11985                       # Request fanout histogram
system.membus.reqLayer2.occupancy             3498352                       # Layer occupancy (ticks)
system.membus.reqLayer2.utilization               0.4                       # Layer utilization (%)
system.membus.respLayer1.occupancy            9487574                       # Layer occupancy (ticks)
system.membus.respLayer1.utilization              1.0                       # Layer utilization (%)
system.membus.badaddr_responder.pwrStateResidencyTicks::UNDEFINED    979086680                       # Cumulative time (in ticks) in various power states
system.l2bus.pwrStateResidencyTicks::UNDEFINED    979086680                       # Cumulative time (in ticks) in various power states
system.l2bus.trans_dist::ReadResp               19415                       # Transaction distribution
system.l2bus.trans_dist::WritebackDirty          3738                       # Transaction distribution
system.l2bus.trans_dist::CleanEvict             17302                       # Transaction distribution
system.l2bus.trans_dist::UpgradeReq                 1                       # Transaction distribution
system.l2bus.trans_dist::UpgradeResp                1                       # Transaction distribution
system.l2bus.trans_dist::ReadExReq               2345                       # Transaction distribution
system.l2bus.trans_dist::ReadExResp              2345                       # Transaction distribution
system.l2bus.trans_dist::ReadSharedReq          19415                       # Transaction distribution
system.l2bus.pkt_count_system.cpu.icache.mem_side::system.l2cache.cpu_side         6559                       # Packet count per connected master and slave (bytes)
system.l2bus.pkt_count_system.cpu.dcache.mem_side::system.l2cache.cpu_side        57696                       # Packet count per connected master and slave (bytes)
system.l2bus.pkt_count::total                   64255                       # Packet count per connected master and slave (bytes)
system.l2bus.pkt_size_system.cpu.icache.mem_side::system.l2cache.cpu_side       150784                       # Cumulative packet size per connected master and slave (bytes)
system.l2bus.pkt_size_system.cpu.dcache.mem_side::system.l2cache.cpu_side      1477952                       # Cumulative packet size per connected master and slave (bytes)
system.l2bus.pkt_size::total                  1628736                       # Cumulative packet size per connected master and slave (bytes)
system.l2bus.snoops                               307                       # Total snoops (count)
system.l2bus.snoopTraffic                        3136                       # Total snoop traffic (bytes)
system.l2bus.snoop_fanout::samples              22066                       # Request fanout histogram
system.l2bus.snoop_fanout::mean              0.002810                       # Request fanout histogram
system.l2bus.snoop_fanout::stdev             0.052934                       # Request fanout histogram
system.l2bus.snoop_fanout::underflows               0      0.00%      0.00% # Request fanout histogram
system.l2bus.snoop_fanout::0                    22004     99.72%     99.72% # Request fanout histogram
system.l2bus.snoop_fanout::1                       62      0.28%    100.00% # Request fanout histogram
system.l2bus.snoop_fanout::2                        0      0.00%    100.00% # Request fanout histogram
system.l2bus.snoop_fanout::3                        0      0.00%    100.00% # Request fanout histogram
system.l2bus.snoop_fanout::overflows                0      0.00%    100.00% # Request fanout histogram
system.l2bus.snoop_fanout::min_value                0                       # Request fanout histogram
system.l2bus.snoop_fanout::max_value                1                       # Request fanout histogram
system.l2bus.snoop_fanout::total                22066                       # Request fanout histogram
system.l2bus.reqLayer0.occupancy             13209482                       # Layer occupancy (ticks)
system.l2bus.reqLayer0.utilization                1.3                       # Layer utilization (%)
system.l2bus.respLayer1.occupancy            11098230                       # Layer occupancy (ticks)
system.l2bus.respLayer1.utilization               1.1                       # Layer utilization (%)
system.l2bus.respLayer0.occupancy             1349061                       # Layer occupancy (ticks)
system.l2bus.respLayer0.utilization               0.1                       # Layer utilization (%)
system.clk_domain.clock                           286                       # Clock period in ticks
system.clk_domain.voltage_domain.voltage            1                       # Voltage in Volts
system.mem_cntrls1.pwrStateResidencyTicks::UNDEFINED    979086680                       # Cumulative time (in ticks) in various power states
system.mem_cntrls1.bytes_read::.cpu.inst       131648                       # Number of bytes read from this memory
system.mem_cntrls1.bytes_read::.cpu.data       635392                       # Number of bytes read from this memory
system.mem_cntrls1.bytes_read::total           767040                       # Number of bytes read from this memory
system.mem_cntrls1.bytes_inst_read::.cpu.inst       131648                       # Number of instructions bytes read from this memory
system.mem_cntrls1.bytes_inst_read::total       131648                       # Number of instructions bytes read from this memory
system.mem_cntrls1.num_reads::.cpu.inst          2057                       # Number of read requests responded to by this memory
system.mem_cntrls1.num_reads::.cpu.data          9928                       # Number of read requests responded to by this memory
system.mem_cntrls1.num_reads::total             11985                       # Number of read requests responded to by this memory
system.mem_cntrls1.bw_read::.cpu.inst       134460005                       # Total read bandwidth from this memory (bytes/s)
system.mem_cntrls1.bw_read::.cpu.data       648963992                       # Total read bandwidth from this memory (bytes/s)
system.mem_cntrls1.bw_read::total           783423997                       # Total read bandwidth from this memory (bytes/s)
system.mem_cntrls1.bw_inst_read::.cpu.inst    134460005                       # Instruction read bandwidth from this memory (bytes/s)
system.mem_cntrls1.bw_inst_read::total      134460005                       # Instruction read bandwidth from this memory (bytes/s)
system.mem_cntrls1.bw_total::.cpu.inst      134460005                       # Total bandwidth to/from this memory (bytes/s)
system.mem_cntrls1.bw_total::.cpu.data      648963992                       # Total bandwidth to/from this memory (bytes/s)
system.mem_cntrls1.bw_total::total          783423997                       # Total bandwidth to/from this memory (bytes/s)
system.mem_cntrls1.avgPriority_.cpu.inst::samples      2057.00                       # Average QoS priority value for accepted requests
system.mem_cntrls1.avgPriority_.cpu.data::samples      9928.00                       # Average QoS priority value for accepted requests
system.mem_cntrls1.priorityMinLatency    0.000000017492                       # per QoS priority minimum request to response latency (s)
system.mem_cntrls1.priorityMaxLatency    0.000000802236                       # per QoS priority maximum request to response latency (s)
system.mem_cntrls1.numReadWriteTurnArounds            0                       # Number of turnarounds from READ to WRITE
system.mem_cntrls1.numWriteReadTurnArounds            0                       # Number of turnarounds from WRITE to READ
system.mem_cntrls1.numStayReadState             24074                       # Number of times bus staying in READ state
system.mem_cntrls1.numStayWriteState                0                       # Number of times bus staying in WRITE state
system.mem_cntrls1.readReqs                     11985                       # Number of read requests accepted
system.mem_cntrls1.writeReqs                        0                       # Number of write requests accepted
system.mem_cntrls1.readBursts                   11985                       # Number of DRAM read bursts, including those serviced by the write queue
system.mem_cntrls1.writeBursts                      0                       # Number of DRAM write bursts, including those merged in the write queue
system.mem_cntrls1.servicedByWrQ                    0                       # Number of DRAM read bursts serviced by the write queue
system.mem_cntrls1.mergedWrBursts                   0                       # Number of DRAM write bursts merged with an existing one
system.mem_cntrls1.neitherReadNorWriteReqs            0                       # Number of requests that are neither read nor write
system.mem_cntrls1.perBankRdBursts::0             419                       # Per bank write bursts
system.mem_cntrls1.perBankRdBursts::1             418                       # Per bank write bursts
system.mem_cntrls1.perBankRdBursts::2             503                       # Per bank write bursts
system.mem_cntrls1.perBankRdBursts::3             593                       # Per bank write bursts
system.mem_cntrls1.perBankRdBursts::4             404                       # Per bank write bursts
system.mem_cntrls1.perBankRdBursts::5             342                       # Per bank write bursts
system.mem_cntrls1.perBankRdBursts::6             281                       # Per bank write bursts
system.mem_cntrls1.perBankRdBursts::7             433                       # Per bank write bursts
system.mem_cntrls1.perBankRdBursts::8             419                       # Per bank write bursts
system.mem_cntrls1.perBankRdBursts::9             396                       # Per bank write bursts
system.mem_cntrls1.perBankRdBursts::10            368                       # Per bank write bursts
system.mem_cntrls1.perBankRdBursts::11            356                       # Per bank write bursts
system.mem_cntrls1.perBankRdBursts::12            384                       # Per bank write bursts
system.mem_cntrls1.perBankRdBursts::13            507                       # Per bank write bursts
system.mem_cntrls1.perBankRdBursts::14            469                       # Per bank write bursts
system.mem_cntrls1.perBankRdBursts::15            470                       # Per bank write bursts
system.mem_cntrls1.perBankRdBursts::16            400                       # Per bank write bursts
system.mem_cntrls1.perBankRdBursts::17            332                       # Per bank write bursts
system.mem_cntrls1.perBankRdBursts::18            375                       # Per bank write bursts
system.mem_cntrls1.perBankRdBursts::19            323                       # Per bank write bursts
system.mem_cntrls1.perBankRdBursts::20            197                       # Per bank write bursts
system.mem_cntrls1.perBankRdBursts::21            300                       # Per bank write bursts
system.mem_cntrls1.perBankRdBursts::22            325                       # Per bank write bursts
system.mem_cntrls1.perBankRdBursts::23            243                       # Per bank write bursts
system.mem_cntrls1.perBankRdBursts::24            350                       # Per bank write bursts
system.mem_cntrls1.perBankRdBursts::25            408                       # Per bank write bursts
system.mem_cntrls1.perBankRdBursts::26            403                       # Per bank write bursts
system.mem_cntrls1.perBankRdBursts::27            290                       # Per bank write bursts
system.mem_cntrls1.perBankRdBursts::28            230                       # Per bank write bursts
system.mem_cntrls1.perBankRdBursts::29            377                       # Per bank write bursts
system.mem_cntrls1.perBankRdBursts::30            295                       # Per bank write bursts
system.mem_cntrls1.perBankRdBursts::31            375                       # Per bank write bursts
system.mem_cntrls1.perBankWrBursts::0               0                       # Per bank write bursts
system.mem_cntrls1.perBankWrBursts::1               0                       # Per bank write bursts
system.mem_cntrls1.perBankWrBursts::2               0                       # Per bank write bursts
system.mem_cntrls1.perBankWrBursts::3               0                       # Per bank write bursts
system.mem_cntrls1.perBankWrBursts::4               0                       # Per bank write bursts
system.mem_cntrls1.perBankWrBursts::5               0                       # Per bank write bursts
system.mem_cntrls1.perBankWrBursts::6               0                       # Per bank write bursts
system.mem_cntrls1.perBankWrBursts::7               0                       # Per bank write bursts
system.mem_cntrls1.perBankWrBursts::8               0                       # Per bank write bursts
system.mem_cntrls1.perBankWrBursts::9               0                       # Per bank write bursts
system.mem_cntrls1.perBankWrBursts::10              0                       # Per bank write bursts
system.mem_cntrls1.perBankWrBursts::11              0                       # Per bank write bursts
system.mem_cntrls1.perBankWrBursts::12              0                       # Per bank write bursts
system.mem_cntrls1.perBankWrBursts::13              0                       # Per bank write bursts
system.mem_cntrls1.perBankWrBursts::14              0                       # Per bank write bursts
system.mem_cntrls1.perBankWrBursts::15              0                       # Per bank write bursts
system.mem_cntrls1.perBankWrBursts::16              0                       # Per bank write bursts
system.mem_cntrls1.perBankWrBursts::17              0                       # Per bank write bursts
system.mem_cntrls1.perBankWrBursts::18              0                       # Per bank write bursts
system.mem_cntrls1.perBankWrBursts::19              0                       # Per bank write bursts
system.mem_cntrls1.perBankWrBursts::20              0                       # Per bank write bursts
system.mem_cntrls1.perBankWrBursts::21              0                       # Per bank write bursts
system.mem_cntrls1.perBankWrBursts::22              0                       # Per bank write bursts
system.mem_cntrls1.perBankWrBursts::23              0                       # Per bank write bursts
system.mem_cntrls1.perBankWrBursts::24              0                       # Per bank write bursts
system.mem_cntrls1.perBankWrBursts::25              0                       # Per bank write bursts
system.mem_cntrls1.perBankWrBursts::26              0                       # Per bank write bursts
system.mem_cntrls1.perBankWrBursts::27              0                       # Per bank write bursts
system.mem_cntrls1.perBankWrBursts::28              0                       # Per bank write bursts
system.mem_cntrls1.perBankWrBursts::29              0                       # Per bank write bursts
system.mem_cntrls1.perBankWrBursts::30              0                       # Per bank write bursts
system.mem_cntrls1.perBankWrBursts::31              0                       # Per bank write bursts
system.mem_cntrls1.avgRdQLen                     1.29                       # Average read queue length when enqueuing
system.mem_cntrls1.avgWrQLen                     0.00                       # Average write queue length when enqueuing
system.mem_cntrls1.totQLat                  117087862                       # Total ticks spent queuing
system.mem_cntrls1.totBusLat                 39934020                       # Total ticks spent in databus transfers
system.mem_cntrls1.totMemAccLat             326729482                       # Total ticks spent from burst creation until serviced by the DRAM
system.mem_cntrls1.avgQLat                    9769.53                       # Average queueing delay per DRAM burst
system.mem_cntrls1.avgBusLat                  3332.00                       # Average bus latency per DRAM burst
system.mem_cntrls1.avgMemAccLat              27261.53                       # Average memory access latency per DRAM burst
system.mem_cntrls1.numRdRetry                       0                       # Number of times read queue was full causing retry
system.mem_cntrls1.numWrRetry                       0                       # Number of times write queue was full causing retry
[...]
system.cpu.icache.ReadReq_mshr_miss_rate::total     0.003280                       # mshr miss rate for ReadReq accesses
system.cpu.icache.ReadReq_avg_mshr_miss_latency::.cpu.inst 36057.760870                       # average ReadReq mshr miss latency
system.cpu.icache.ReadReq_avg_mshr_miss_latency::total 36057.760870                       # average ReadReq mshr miss latency
system.cpu.icache.prefetcher.pwrStateResidencyTicks::UNDEFINED     66337414                       # Cumulative time (in ticks) in various power states
system.cpu.icache.tags.pwrStateResidencyTicks::UNDEFINED     66337414                       # Cumulative time (in ticks) in various power states
system.cpu.icache.tags.tagsinuse           511.970795                       # Cycle average of tags in use
system.cpu.icache.tags.total_refs             1255795                       # Total number of references to valid blocks.
system.cpu.icache.tags.sampled_refs               971                       # Sample count of references to valid blocks.
system.cpu.icache.tags.avg_refs           1293.300721                       # Average number of references to valid blocks.
system.cpu.icache.tags.warmup_cycle                 0                       # Cycle when the warmup percentage was hit.
system.cpu.icache.tags.occ_blocks::.cpu.inst   511.970795                       # Average occupied blocks per requestor
system.cpu.icache.tags.occ_percent::.cpu.inst     0.999943                       # Average percentage of cache occupancy
system.cpu.icache.tags.occ_percent::total     0.999943                       # Average percentage of cache occupancy
system.cpu.icache.tags.occ_task_id_blocks::1024          511                       # Occupied blocks per task id
system.cpu.icache.tags.age_task_id_blocks_1024::0          145                       # Occupied blocks per task id
system.cpu.icache.tags.age_task_id_blocks_1024::1          170                       # Occupied blocks per task id
system.cpu.icache.tags.age_task_id_blocks_1024::2          148                       # Occupied blocks per task id
system.cpu.icache.tags.age_task_id_blocks_1024::3           48                       # Occupied blocks per task id
system.cpu.icache.tags.occ_task_id_percent::1024     0.998047                       # Percentage of cache occupancy per task id
system.cpu.icache.tags.tag_accesses           2244315                       # Number of tag accesses
system.cpu.icache.tags.data_accesses          2244315                       # Number of data accesses
system.cpu.dtb.walker.pwrStateResidencyTicks::UNDEFINED     66337414                       # Cumulative time (in ticks) in various power states
system.cpu.interrupts.clk_domain.clock           4576                       # Clock period in ticks
system.cpu.itb.walker.pwrStateResidencyTicks::UNDEFINED     66337414                       # Cumulative time (in ticks) in various power states
system.cpu.mmucache.pwrStateResidencyTicks::UNDEFINED     66337414                       # Cumulative time (in ticks) in various power states
system.cpu.mmucache.blocked_cycles::no_mshrs            0                       # number of cycles access was blocked
system.cpu.mmucache.blocked_cycles::no_targets            0                       # number of cycles access was blocked
system.cpu.mmucache.blocked::no_mshrs               0                       # number of cycles access was blocked
system.cpu.mmucache.blocked::no_targets             0                       # number of cycles access was blocked
system.cpu.mmucache.avg_blocked_cycles::no_mshrs          nan                       # average number of cycles each access was blocked
system.cpu.mmucache.avg_blocked_cycles::no_targets          nan                       # average number of cycles each access was blocked
system.cpu.mmucache.replacements                    0                       # number of replacements
system.cpu.mmucache.mmubus.pwrStateResidencyTicks::UNDEFINED     66337414                       # Cumulative time (in ticks) in various power states
system.cpu.mmucache.mmubus.snoops                   0                       # Total snoops (count)
system.cpu.mmucache.mmubus.snoopTraffic             0                       # Total snoop traffic (bytes)
system.cpu.mmucache.mmubus.snoop_fanout::samples            0                       # Request fanout histogram
system.cpu.mmucache.mmubus.snoop_fanout::mean          nan                       # Request fanout histogram
system.cpu.mmucache.mmubus.snoop_fanout::stdev          nan                       # Request fanout histogram
system.cpu.mmucache.mmubus.snoop_fanout::underflows            0                       # Request fanout histogram
system.cpu.mmucache.mmubus.snoop_fanout::0            0                       # Request fanout histogram
system.cpu.mmucache.mmubus.snoop_fanout::overflows            0                       # Request fanout histogram
system.cpu.mmucache.mmubus.snoop_fanout::min_value            0                       # Request fanout histogram
system.cpu.mmucache.mmubus.snoop_fanout::max_value            0                       # Request fanout histogram
system.cpu.mmucache.mmubus.snoop_fanout::total            0                       # Request fanout histogram
system.cpu.mmucache.prefetcher.pwrStateResidencyTicks::UNDEFINED     66337414                       # Cumulative time (in ticks) in various power states
system.cpu.mmucache.tags.pwrStateResidencyTicks::UNDEFINED     66337414                       # Cumulative time (in ticks) in various power states
system.cpu.mmucache.tags.tagsinuse                  0                       # Cycle average of tags in use
system.cpu.mmucache.tags.total_refs                 0                       # Total number of references to valid blocks.
system.cpu.mmucache.tags.sampled_refs               0                       # Sample count of references to valid blocks.
system.cpu.mmucache.tags.avg_refs                 nan                       # Average number of references to valid blocks.
system.cpu.mmucache.tags.warmup_cycle               0                       # Cycle when the warmup percentage was hit.
system.cpu.mmucache.tags.tag_accesses               0                       # Number of tag accesses
system.cpu.mmucache.tags.data_accesses              0                       # Number of data accesses
system.cpu.dcache.pwrStateResidencyTicks::UNDEFINED     66337414                       # Cumulative time (in ticks) in various power states
system.cpu.dcache.demand_hits::.cpu.data       111824                       # number of demand (read+write) hits
system.cpu.dcache.demand_hits::total           111824                       # number of demand (read+write) hits
system.cpu.dcache.overall_hits::.cpu.data       111824                       # number of overall hits
system.cpu.dcache.overall_hits::total          111824                       # number of overall hits
system.cpu.dcache.demand_misses::.cpu.data          823                       # number of demand (read+write) misses
system.cpu.dcache.demand_misses::total            823                       # number of demand (read+write) misses
system.cpu.dcache.overall_misses::.cpu.data          823                       # number of overall misses
system.cpu.dcache.overall_misses::total           823                       # number of overall misses
system.cpu.dcache.demand_miss_latency::.cpu.data     25320724                       # number of demand (read+write) miss cycles
system.cpu.dcache.demand_miss_latency::total     25320724                       # number of demand (read+write) miss cycles
system.cpu.dcache.overall_miss_latency::.cpu.data     25320724                       # number of overall miss cycles
system.cpu.dcache.overall_miss_latency::total     25320724                       # number of overall miss cycles
system.cpu.dcache.demand_accesses::.cpu.data       112647                       # number of demand (read+write) accesses
system.cpu.dcache.demand_accesses::total       112647                       # number of demand (read+write) accesses
system.cpu.dcache.overall_accesses::.cpu.data       112647                       # number of overall (read+write) accesses
system.cpu.dcache.overall_accesses::total       112647                       # number of overall (read+write) accesses
system.cpu.dcache.demand_miss_rate::.cpu.data     0.007306                       # miss rate for demand accesses
system.cpu.dcache.demand_miss_rate::total     0.007306                       # miss rate for demand accesses
system.cpu.dcache.overall_miss_rate::.cpu.data     0.007306                       # miss rate for overall accesses
system.cpu.dcache.overall_miss_rate::total     0.007306                       # miss rate for overall accesses
system.cpu.dcache.demand_avg_miss_latency::.cpu.data 30766.371810                       # average overall miss latency
system.cpu.dcache.demand_avg_miss_latency::total 30766.371810                       # average overall miss latency
system.cpu.dcache.overall_avg_miss_latency::.cpu.data 30766.371810                       # average overall miss latency
system.cpu.dcache.overall_avg_miss_latency::total 30766.371810                       # average overall miss latency
system.cpu.dcache.blocked_cycles::no_mshrs            0                       # number of cycles access was blocked
system.cpu.dcache.blocked_cycles::no_targets          533                       # number of cycles access was blocked
system.cpu.dcache.blocked::no_mshrs                 0                       # number of cycles access was blocked
system.cpu.dcache.blocked::no_targets               4                       # number of cycles access was blocked
system.cpu.dcache.avg_blocked_cycles::no_mshrs          nan                       # average number of cycles each access was blocked
system.cpu.dcache.avg_blocked_cycles::no_targets   133.250000                       # average number of cycles each access was blocked
system.cpu.dcache.writebacks::.writebacks          274                       # number of writebacks
system.cpu.dcache.writebacks::total               274                       # number of writebacks
system.cpu.dcache.demand_mshr_hits::.cpu.data          358                       # number of demand (read+write) MSHR hits
system.cpu.dcache.demand_mshr_hits::total          358                       # number of demand (read+write) MSHR hits
system.cpu.dcache.overall_mshr_hits::.cpu.data          358                       # number of overall MSHR hits
system.cpu.dcache.overall_mshr_hits::total          358                       # number of overall MSHR hits
system.cpu.dcache.demand_mshr_misses::.cpu.data          465                       # number of demand (read+write) MSHR misses
system.cpu.dcache.demand_mshr_misses::total          465                       # number of demand (read+write) MSHR misses
system.cpu.dcache.overall_mshr_misses::.cpu.data          465                       # number of overall MSHR misses
system.cpu.dcache.overall_mshr_misses::total          465                       # number of overall MSHR misses
system.cpu.dcache.demand_mshr_miss_latency::.cpu.data      9034740                       # number of demand (read+write) MSHR miss cycles
system.cpu.dcache.demand_mshr_miss_latency::total      9034740                       # number of demand (read+write) MSHR miss cycles
system.cpu.dcache.overall_mshr_miss_latency::.cpu.data      9034740                       # number of overall MSHR miss cycles
system.cpu.dcache.overall_mshr_miss_latency::total      9034740                       # number of overall MSHR miss cycles
system.cpu.dcache.demand_mshr_miss_rate::.cpu.data     0.004128                       # mshr miss rate for demand accesses
system.cpu.dcache.demand_mshr_miss_rate::total     0.004128                       # mshr miss rate for demand accesses
system.cpu.dcache.overall_mshr_miss_rate::.cpu.data     0.004128                       # mshr miss rate for overall accesses
system.cpu.dcache.overall_mshr_miss_rate::total     0.004128                       # mshr miss rate for overall accesses
system.cpu.dcache.demand_avg_mshr_miss_latency::.cpu.data 19429.548387                       # average overall mshr miss latency
system.cpu.dcache.demand_avg_mshr_miss_latency::total 19429.548387                       # average overall mshr miss latency
system.cpu.dcache.overall_avg_mshr_miss_latency::.cpu.data 19429.548387                       # average overall mshr miss latency
system.cpu.dcache.overall_avg_mshr_miss_latency::total 19429.548387                       # average overall mshr miss latency
system.cpu.dcache.replacements                    463                       # number of replacements
system.cpu.dcache.ReadReq_hits::.cpu.data        65332                       # number of ReadReq hits
system.cpu.dcache.ReadReq_hits::total           65332                       # number of ReadReq hits
system.cpu.dcache.ReadReq_misses::.cpu.data          720                       # number of ReadReq misses
system.cpu.dcache.ReadReq_misses::total           720                       # number of ReadReq misses
system.cpu.dcache.ReadReq_miss_latency::.cpu.data     22606298                       # number of ReadReq miss cycles
system.cpu.dcache.ReadReq_miss_latency::total     22606298                       # number of ReadReq miss cycles
system.cpu.dcache.ReadReq_accesses::.cpu.data        66052                       # number of ReadReq accesses(hits+misses)
system.cpu.dcache.ReadReq_accesses::total        66052                       # number of ReadReq accesses(hits+misses)
system.cpu.dcache.ReadReq_miss_rate::.cpu.data     0.010901                       # miss rate for ReadReq accesses
system.cpu.dcache.ReadReq_miss_rate::total     0.010901                       # miss rate for ReadReq accesses
system.cpu.dcache.ReadReq_avg_miss_latency::.cpu.data 31397.636111                       # average ReadReq miss latency
system.cpu.dcache.ReadReq_avg_miss_latency::total 31397.636111                       # average ReadReq miss latency
system.cpu.dcache.ReadReq_mshr_hits::.cpu.data          357                       # number of ReadReq MSHR hits
system.cpu.dcache.ReadReq_mshr_hits::total          357                       # number of ReadReq MSHR hits
system.cpu.dcache.ReadReq_mshr_misses::.cpu.data          363                       # number of ReadReq MSHR misses
system.cpu.dcache.ReadReq_mshr_misses::total          363                       # number of ReadReq MSHR misses
system.cpu.dcache.ReadReq_mshr_miss_latency::.cpu.data      6354634                       # number of ReadReq MSHR miss cycles
system.cpu.dcache.ReadReq_mshr_miss_latency::total      6354634                       # number of ReadReq MSHR miss cycles
system.cpu.dcache.ReadReq_mshr_miss_rate::.cpu.data     0.005496                       # mshr miss rate for ReadReq accesses
system.cpu.dcache.ReadReq_mshr_miss_rate::total     0.005496                       # mshr miss rate for ReadReq accesses
system.cpu.dcache.ReadReq_avg_mshr_miss_latency::.cpu.data 17505.878788                       # average ReadReq mshr miss latency
system.cpu.dcache.ReadReq_avg_mshr_miss_latency::total 17505.878788                       # average ReadReq mshr miss latency
system.cpu.dcache.WriteReq_hits::.cpu.data        46492                       # number of WriteReq hits
system.cpu.dcache.WriteReq_hits::total          46492                       # number of WriteReq hits
system.cpu.dcache.WriteReq_misses::.cpu.data          103                       # number of WriteReq misses
system.cpu.dcache.WriteReq_misses::total          103                       # number of WriteReq misses
system.cpu.dcache.WriteReq_miss_latency::.cpu.data      2714426                       # number of WriteReq miss cycles
system.cpu.dcache.WriteReq_miss_latency::total      2714426                       # number of WriteReq miss cycles
system.cpu.dcache.WriteReq_accesses::.cpu.data        46595                       # number of WriteReq accesses(hits+misses)
system.cpu.dcache.WriteReq_accesses::total        46595                       # number of WriteReq accesses(hits+misses)
system.cpu.dcache.WriteReq_miss_rate::.cpu.data     0.002211                       # miss rate for WriteReq accesses
system.cpu.dcache.WriteReq_miss_rate::total     0.002211                       # miss rate for WriteReq accesses
system.cpu.dcache.WriteReq_avg_miss_latency::.cpu.data 26353.650485                       # average WriteReq miss latency
system.cpu.dcache.WriteReq_avg_miss_latency::total 26353.650485                       # average WriteReq miss latency
system.cpu.dcache.WriteReq_mshr_hits::.cpu.data            1                       # number of WriteReq MSHR hits
system.cpu.dcache.WriteReq_mshr_hits::total            1                       # number of WriteReq MSHR hits
system.cpu.dcache.WriteReq_mshr_misses::.cpu.data          102                       # number of WriteReq MSHR misses
system.cpu.dcache.WriteReq_mshr_misses::total          102                       # number of WriteReq MSHR misses
system.cpu.dcache.WriteReq_mshr_miss_latency::.cpu.data      2680106                       # number of WriteReq MSHR miss cycles
system.cpu.dcache.WriteReq_mshr_miss_latency::total      2680106                       # number of WriteReq MSHR miss cycles
system.cpu.dcache.WriteReq_mshr_miss_rate::.cpu.data     0.002189                       # mshr miss rate for WriteReq accesses
system.cpu.dcache.WriteReq_mshr_miss_rate::total     0.002189                       # mshr miss rate for WriteReq accesses
system.cpu.dcache.WriteReq_avg_mshr_miss_latency::.cpu.data 26275.549020                       # average WriteReq mshr miss latency
system.cpu.dcache.WriteReq_avg_mshr_miss_latency::total 26275.549020                       # average WriteReq mshr miss latency
system.cpu.dcache.prefetcher.pwrStateResidencyTicks::UNDEFINED     66337414                       # Cumulative time (in ticks) in various power states
system.cpu.dcache.tags.pwrStateResidencyTicks::UNDEFINED     66337414                       # Cumulative time (in ticks) in various power states
system.cpu.dcache.tags.tagsinuse                  512                       # Cycle average of tags in use
system.cpu.dcache.tags.total_refs              345057                       # Total number of references to valid blocks.
system.cpu.dcache.tags.sampled_refs               975                       # Sample count of references to valid blocks.
system.cpu.dcache.tags.avg_refs            353.904615                       # Average number of references to valid blocks.
system.cpu.dcache.tags.warmup_cycle                 0                       # Cycle when the warmup percentage was hit.
system.cpu.dcache.tags.occ_blocks::.cpu.data          512                       # Average occupied blocks per requestor
system.cpu.dcache.tags.occ_percent::.cpu.data            1                       # Average percentage of cache occupancy
system.cpu.dcache.tags.occ_percent::total            1                       # Average percentage of cache occupancy
system.cpu.dcache.tags.occ_task_id_blocks::1024          512                       # Occupied blocks per task id
system.cpu.dcache.tags.age_task_id_blocks_1024::0          149                       # Occupied blocks per task id
system.cpu.dcache.tags.age_task_id_blocks_1024::1          162                       # Occupied blocks per task id
system.cpu.dcache.tags.age_task_id_blocks_1024::2          201                       # Occupied blocks per task id
system.cpu.dcache.tags.occ_task_id_percent::1024            1                       # Percentage of cache occupancy per task id
system.cpu.dcache.tags.tag_accesses           1802815                       # Number of tag accesses
system.cpu.dcache.tags.data_accesses          1802815                       # Number of data accesses

---------- End Simulation Statistics   ----------
