
---------- Begin Simulation Statistics ----------
final_tick                                 1118696400                       # Number of ticks from beginning of simulation (restored from checkpoints and never reset)
host_inst_rate                                 187819                       # Simulator instruction rate (inst/s)
host_mem_usage                                4402744                       # Number of bytes of host memory used
host_op_rate                                   325991                       # Simulator op (including micro ops) rate (op/s)
host_seconds                                    11.61                       # Real time elapsed on the host
host_tick_rate                               96347984                       # Simulator tick rate (ticks/s)
sim_freq                                 1000000000000                       # Frequency of simulated ticks
sim_insts                                     2180753                       # Number of instructions simulated
sim_ops                                       3785081                       # Number of ops (including micro ops) simulated
sim_seconds                                  0.001119                       # Number of seconds simulated
sim_ticks                                  1118696400                       # Number of ticks simulated
system.cpu.branchPred.BTBCorrect                    0                       # Number of correct BTB predictions (this stat may not work properly.
system.cpu.branchPred.BTBHitPct              0.000000                       # BTB Hit Percentage
system.cpu.branchPred.BTBHits                       0                       # Number of BTB hits
system.cpu.branchPred.BTBLookups               445478                       # Number of BTB lookups
system.cpu.branchPred.RASInCorrect                  4                       # Number of incorrect RAS predictions.
system.cpu.branchPred.condIncorrect             24225                       # Number of conditional branches incorrect
system.cpu.branchPred.condPredicted            472490                       # Number of conditional branches predicted
system.cpu.branchPred.indirectHits             247923                       # Number of indirect target hits.
system.cpu.branchPred.indirectLookups          445478                       # Number of indirect predictor lookups.
system.cpu.branchPred.indirectMisses           197555                       # Number of indirect misses.
system.cpu.branchPred.lookups                  503923                       # Number of BP lookups
system.cpu.branchPred.usedRAS                   13949                       # Number of times the RAS was used to get a target.
system.cpu.branchPredindirectMispredicted        12141                       # Number of mispredicted indirect branches.
system.cpu.cc_regfile_reads                   2441912                       # number of cc regfile reads
system.cpu.cc_regfile_writes                  2055291                       # number of cc regfile writes
system.cpu.commit.amos                              0                       # Number of atomic instructions committed
system.cpu.commit.branchMispredicts             24275                       # The number of times a branch was mispredicted
system.cpu.commit.branches                     359550                       # Number of branches committed
system.cpu.commit.bw_lim_events                628691                       # number cycles where commit BW limit reached
system.cpu.commit.commitNonSpecStalls             732                       # The number of times commit has been forced to stall to communicate backwards
system.cpu.commit.commitSquashedInsts          884930                       # The number of squashed insts skipped by commit
system.cpu.commit.committedInsts              2180753                       # Number of instructions committed
system.cpu.commit.committedOps                3785081                       # Number of ops (including micro ops) committed
system.cpu.commit.committed_per_cycle::samples      2407013                       # Number of insts commited each cycle
system.cpu.commit.committed_per_cycle::mean     1.572522                       # Number of insts commited each cycle
system.cpu.commit.committed_per_cycle::stdev     1.722970                       # Number of insts commited each cycle
system.cpu.commit.committed_per_cycle::underflows            0      0.00%      0.00% # Number of insts commited each cycle
system.cpu.commit.committed_per_cycle::0      1158831     48.14%     48.14% # Number of insts commited each cycle
system.cpu.commit.committed_per_cycle::1       201972      8.39%     56.53% # Number of insts commited each cycle
system.cpu.commit.committed_per_cycle::2       184212      7.65%     64.19% # Number of insts commited each cycle
system.cpu.commit.committed_per_cycle::3       233307      9.69%     73.88% # Number of insts commited each cycle
system.cpu.commit.committed_per_cycle::4       628691     26.12%    100.00% # Number of insts commited each cycle
system.cpu.commit.committed_per_cycle::overflows            0      0.00%    100.00% # Number of insts commited each cycle
system.cpu.commit.committed_per_cycle::min_value            0                       # Number of insts commited each cycle
system.cpu.commit.committed_per_cycle::max_value            4                       # Number of insts commited each cycle
system.cpu.commit.committed_per_cycle::total      2407013                       # Number of insts commited each cycle
system.cpu.commit.fp_insts                      72844                       # Number of committed floating point instructions.
system.cpu.commit.function_calls                12148                       # Number of function calls committed.
system.cpu.commit.int_insts                   3730911                       # Number of committed integer instructions.
system.cpu.commit.loads                        506442                       # Number of loads committed
system.cpu.commit.membars                           1                       # Number of memory barriers committed
system.cpu.commit.op_class_0::No_OpClass        20169      0.53%      0.53% # Class of committed instruction
system.cpu.commit.op_class_0::IntAlu          2993835     79.10%     79.63% # Class of committed instruction
system.cpu.commit.op_class_0::IntMult            5371      0.14%     79.77% # Class of committed instruction
system.cpu.commit.op_class_0::IntDiv            37816      1.00%     80.77% # Class of committed instruction
system.cpu.commit.op_class_0::FloatAdd           2834      0.07%     80.84% # Class of committed instruction
system.cpu.commit.op_class_0::FloatCmp              0      0.00%     80.84% # Class of committed instruction
system.cpu.commit.op_class_0::FloatCvt           1200      0.03%     80.88% # Class of committed instruction
system.cpu.commit.op_class_0::FloatMult             0      0.00%     80.88% # Class of committed instruction
system.cpu.commit.op_class_0::FloatMultAcc            0      0.00%     80.88% # Class of committed instruction
system.cpu.commit.op_class_0::FloatDiv              0      0.00%     80.88% # Class of committed instruction
system.cpu.commit.op_class_0::FloatMisc             0      0.00%     80.88% # Class of committed instruction
system.cpu.commit.op_class_0::FloatSqrt             0      0.00%     80.88% # Class of committed instruction
system.cpu.commit.op_class_0::SimdAdd            6184      0.16%     81.04% # Class of committed instruction
system.cpu.commit.op_class_0::SimdAddAcc            0      0.00%     81.04% # Class of committed instruction
system.cpu.commit.op_class_0::SimdAlu           11116      0.29%     81.33% # Class of committed instruction
system.cpu.commit.op_class_0::SimdCmp               0      0.00%     81.33% # Class of committed instruction
system.cpu.commit.op_class_0::SimdCvt           12050      0.32%     81.65% # Class of committed instruction
system.cpu.commit.op_class_0::SimdMisc           6479      0.17%     81.82% # Class of committed instruction
system.cpu.commit.op_class_0::SimdMult              0      0.00%     81.82% # Class of committed instruction
system.cpu.commit.op_class_0::SimdMultAcc            0      0.00%     81.82% # Class of committed instruction
system.cpu.commit.op_class_0::SimdShift          1055      0.03%     81.85% # Class of committed instruction
system.cpu.commit.op_class_0::SimdShiftAcc            0      0.00%     81.85% # Class of committed instruction
system.cpu.commit.op_class_0::SimdDiv               0      0.00%     81.85% # Class of committed instruction
system.cpu.commit.op_class_0::SimdSqrt              0      0.00%     81.85% # Class of committed instruction
system.cpu.commit.op_class_0::SimdFloatAdd            0      0.00%     81.85% # Class of committed instruction
system.cpu.commit.op_class_0::SimdFloatAlu            0      0.00%     81.85% # Class of committed instruction
system.cpu.commit.op_class_0::SimdFloatCmp            0      0.00%     81.85% # Class of committed instruction
system.cpu.commit.op_class_0::SimdFloatCvt            0      0.00%     81.85% # Class of committed instruction
system.cpu.commit.op_class_0::SimdFloatDiv            0      0.00%     81.85% # Class of committed instruction
system.cpu.commit.op_class_0::SimdFloatMisc            0      0.00%     81.85% # Class of committed instruction
system.cpu.commit.op_class_0::SimdFloatMult            0      0.00%     81.85% # Class of committed instruction
system.cpu.commit.op_class_0::SimdFloatMultAcc            0      0.00%     81.85% # Class of committed instruction
system.cpu.commit.op_class_0::SimdFloatSqrt            0      0.00%     81.85% # Class of committed instruction
system.cpu.commit.op_class_0::SimdReduceAdd            0      0.00%     81.85% # Class of committed instruction
system.cpu.commit.op_class_0::SimdReduceAlu            0      0.00%     81.85% # Class of committed instruction
system.cpu.commit.op_class_0::SimdReduceCmp            0      0.00%     81.85% # Class of committed instruction
system.cpu.commit.op_class_0::SimdFloatReduceAdd            0      0.00%     81.85% # Class of committed instruction
system.cpu.commit.op_class_0::SimdFloatReduceCmp            0      0.00%     81.85% # Class of committed instruction
system.cpu.commit.op_class_0::SimdAes               0      0.00%     81.85% # Class of committed instruction
system.cpu.commit.op_class_0::SimdAesMix            0      0.00%     81.85% # Class of committed instruction
system.cpu.commit.op_class_0::SimdSha1Hash            0      0.00%     81.85% # Class of committed instruction
system.cpu.commit.op_class_0::SimdSha1Hash2            0      0.00%     81.85% # Class of committed instruction
system.cpu.commit.op_class_0::SimdSha256Hash            0      0.00%     81.85% # Class of committed instruction
system.cpu.commit.op_class_0::SimdSha256Hash2            0      0.00%     81.85% # Class of committed instruction
system.cpu.commit.op_class_0::SimdShaSigma2            0      0.00%     81.85% # Class of committed instruction
system.cpu.commit.op_class_0::SimdShaSigma3            0      0.00%     81.85% # Class of committed instruction
system.cpu.commit.op_class_0::SimdPredAlu            0      0.00%     81.85% # Class of committed instruction
system.cpu.commit.op_class_0::MemRead          487404     12.88%     94.73% # Class of committed instruction
system.cpu.commit.op_class_0::MemWrite         168461      4.45%     99.18% # Class of committed instruction
system.cpu.commit.op_class_0::FloatMemRead        19038      0.50%     99.68% # Class of committed instruction
system.cpu.commit.op_class_0::FloatMemWrite        12069      0.32%    100.00% # Class of committed instruction
system.cpu.commit.op_class_0::IprAccess             0      0.00%    100.00% # Class of committed instruction
system.cpu.commit.op_class_0::InstPrefetch            0      0.00%    100.00% # Class of committed instruction
system.cpu.commit.op_class_0::total           3785081                       # Class of committed instruction
system.cpu.commit.refs                         686972                       # Number of memory references committed
system.cpu.commit.swp_count                         0                       # Number of s/w prefetches committed
system.cpu.commit.vec_insts                         0                       # Number of committed Vector instructions.
system.cpu.committedInsts                     2180753                       # Number of Instructions Simulated
system.cpu.committedOps                       3785081                       # Number of Ops (including micro ops) Simulated
system.cpu.cpi                               1.282466                       # CPI: Cycles Per Instruction
system.cpu.cpi_total                         1.282466                       # CPI: Total CPI of All Threads
system.cpu.dcache.prefetcher.num_hwpf_issued         7983                       # number of hwpf issued
system.cpu.dcache.prefetcher.pfBufferHit        34051                       # number of redundant prefetches already in prefetch queue
system.cpu.dcache.prefetcher.pfIdentified        49680                       # number of prefetch candidates identified
system.cpu.dcache.prefetcher.pfInCache              0                       # number of redundant prefetches already in cache/mshr dropped
system.cpu.dcache.prefetcher.pfRemovedFull            0                       # number of prefetches dropped due to prefetch queue size
system.cpu.dcache.prefetcher.pfSpanPage          4552                       # number of prefetches that crossed the page
system.cpu.decode.BlockedCycles               1047717                       # Number of cycles decode is blocked
system.cpu.decode.DecodedInsts                4886911                       # Number of instructions handled by decode
system.cpu.decode.IdleCycles                   297772                       # Number of cycles decode is idle
system.cpu.decode.RunCycles                   1179949                       # Number of cycles decode is running
system.cpu.decode.SquashCycles                  24340                       # Number of cycles decode is squashing
system.cpu.decode.UnblockCycles                 98623                       # Number of cycles decode is unblocking
system.cpu.dtb.rdAccesses                      589236                       # TLB accesses on read requests
system.cpu.dtb.rdMisses                          2058                       # TLB misses on read requests
system.cpu.dtb.wrAccesses                      200285                       # TLB accesses on write requests
system.cpu.dtb.wrMisses                           149                       # TLB misses on write requests
system.cpu.fetch.Branches                      503923                       # Number of branches that fetch encountered
system.cpu.fetch.CacheLines                    252770                       # Number of cache lines fetched
system.cpu.fetch.Cycles                       2284734                       # Number of cycles fetch has run and was not squashing or blocked
system.cpu.fetch.IcacheSquashes                  4517                       # Number of outstanding Icache misses that were squashed
system.cpu.fetch.Insts                        2953258                       # Number of instructions fetch has processed
system.cpu.fetch.MiscStallCycles                   73                       # Number of cycles fetch has spent waiting on interrupts, or bad addresses, or out of MSHRs
system.cpu.fetch.PendingQuiesceStallCycles            8                       # Number of stall cycles due to pending quiesce instructions
system.cpu.fetch.PendingTrapStallCycles           373                       # Number of stall cycles due to pending traps
system.cpu.fetch.SquashCycles                   48680                       # Number of cycles fetch has spent squashing
system.cpu.fetch.branchRate                  0.180182                       # Number of branch fetches per cycle
system.cpu.fetch.icacheStallCycles             338873                       # Number of cycles fetch is stalled on an Icache miss
system.cpu.fetch.predictedBranches             261872                       # Number of branches that fetch has predicted taken
system.cpu.fetch.rate                        1.055964                       # Number of inst fetches per cycle
system.cpu.fetch.rateDist::samples            2648401                       # Number of instructions fetched each cycle (Total)
system.cpu.fetch.rateDist::mean              1.950553                       # Number of instructions fetched each cycle (Total)
system.cpu.fetch.rateDist::stdev             1.929034                       # Number of instructions fetched each cycle (Total)
system.cpu.fetch.rateDist::underflows               0      0.00%      0.00% # Number of instructions fetched each cycle (Total)
system.cpu.fetch.rateDist::0                  1246004     47.05%     47.05% # Number of instructions fetched each cycle (Total)
system.cpu.fetch.rateDist::1                    79264      2.99%     50.04% # Number of instructions fetched each cycle (Total)
system.cpu.fetch.rateDist::2                    61830      2.33%     52.37% # Number of instructions fetched each cycle (Total)
system.cpu.fetch.rateDist::3                    82289      3.11%     55.48% # Number of instructions fetched each cycle (Total)
system.cpu.fetch.rateDist::4                  1179014     44.52%    100.00% # Number of instructions fetched each cycle (Total)
system.cpu.fetch.rateDist::overflows                0      0.00%    100.00% # Number of instructions fetched each cycle (Total)
system.cpu.fetch.rateDist::min_value                0                       # Number of instructions fetched each cycle (Total)
system.cpu.fetch.rateDist::max_value                4                       # Number of instructions fetched each cycle (Total)
system.cpu.fetch.rateDist::total              2648401                       # Number of instructions fetched each cycle (Total)
system.cpu.fp_regfile_reads                    118575                       # number of floating regfile reads
system.cpu.fp_regfile_writes                    64972                       # number of floating regfile writes
system.cpu.fuPool.fu_ticks_busy::IntALU(0)    228148400                       # Total ticks fu was busy
system.cpu.fuPool.fu_ticks_busy::IntALU(1)    228148400                       # Total ticks fu was busy
system.cpu.fuPool.fu_ticks_busy::IntALU(2)    228148400                       # Total ticks fu was busy
system.cpu.fuPool.fu_ticks_busy::IntALU(3)    228148400                       # Total ticks fu was busy
system.cpu.fuPool.fu_ticks_busy::IntALU(4)    228148400                       # Total ticks fu was busy
system.cpu.fuPool.fu_ticks_busy::IntALU(5)    228148000                       # Total ticks fu was busy
system.cpu.fuPool.fu_ticks_busy::IntMultDiv(0)      9408800                       # Total ticks fu was busy
system.cpu.fuPool.fu_ticks_busy::IntMultDiv(1)      9408800                       # Total ticks fu was busy
system.cpu.fuPool.fu_ticks_busy::FP_ALU(0)       547600                       # Total ticks fu was busy
system.cpu.fuPool.fu_ticks_busy::FP_ALU(1)       547600                       # Total ticks fu was busy
system.cpu.fuPool.fu_ticks_busy::FP_ALU(2)       547200                       # Total ticks fu was busy
system.cpu.fuPool.fu_ticks_busy::FP_ALU(3)       547200                       # Total ticks fu was busy
system.cpu.fuPool.fu_ticks_busy::FP_MultDiv(0)            0                       # Total ticks fu was busy
system.cpu.fuPool.fu_ticks_busy::FP_MultDiv(1)            0                       # Total ticks fu was busy
system.cpu.fuPool.fu_ticks_busy::SIMD_Unit(0)      4372400                       # Total ticks fu was busy
system.cpu.fuPool.fu_ticks_busy::SIMD_Unit(1)      4409200                       # Total ticks fu was busy
system.cpu.fuPool.fu_ticks_busy::SIMD_Unit(2)      4498000                       # Total ticks fu was busy
system.cpu.fuPool.fu_ticks_busy::SIMD_Unit(3)      4457600                       # Total ticks fu was busy
system.cpu.fuPool.fu_ticks_busy::PredALU(0)            0                       # Total ticks fu was busy
system.cpu.fuPool.fu_ticks_busy::RdWrPort(0)     80397200                       # Total ticks fu was busy
system.cpu.fuPool.fu_ticks_busy::RdWrPort(1)     80449200                       # Total ticks fu was busy
system.cpu.fuPool.fu_ticks_busy::RdWrPort(2)     80415200                       # Total ticks fu was busy
system.cpu.fuPool.fu_ticks_busy::RdWrPort(3)     80380400                       # Total ticks fu was busy
system.cpu.fuPool.fu_ticks_busy::IprPort(0)            0                       # Total ticks fu was busy
system.cpu.fuPool.fu_ticks_busy::total     1729276400                       # Total ticks fu was busy
system.cpu.icache.prefetcher.num_hwpf_issued            0                       # number of hwpf issued
system.cpu.icache.prefetcher.pfBufferHit            0                       # number of redundant prefetches already in prefetch queue
system.cpu.icache.prefetcher.pfIdentified            0                       # number of prefetch candidates identified
system.cpu.icache.prefetcher.pfInCache              0                       # number of redundant prefetches already in cache/mshr dropped
system.cpu.icache.prefetcher.pfRemovedFull            0                       # number of prefetches dropped due to prefetch queue size
system.cpu.icache.prefetcher.pfSpanPage             0                       # number of prefetches that crossed the page
system.cpu.idleCycles                          148341                       # Total number of cycles that the CPU has spent unscheduled due to idling
system.cpu.iew.branchMispredicts                28565                       # Number of branch mispredicts detected at execute
system.cpu.iew.exec_branches                   389645                       # Number of branches executed
system.cpu.iew.exec_nop                             0                       # number of nop insts executed
system.cpu.iew.exec_rate                     1.542784                       # Inst execution rate
system.cpu.iew.exec_refs                       791261                       # number of memory reference insts executed
system.cpu.iew.exec_stores                     200274                       # Number of stores executed
system.cpu.iew.exec_swp                             0                       # number of swp insts executed
system.cpu.iew.iewBlockCycles                  687736                       # Number of cycles IEW is blocking
system.cpu.iew.iewDispLoadInsts                621885                       # Number of dispatched load instructions
system.cpu.iew.iewDispNonSpecInsts                929                       # Number of dispatched non-speculative instructions
system.cpu.iew.iewDispSquashedInsts               591                       # Number of squashed instructions skipped by dispatch
system.cpu.iew.iewDispStoreInsts               210647                       # Number of dispatched store instructions
system.cpu.iew.iewDispatchedInsts             4669953                       # Number of instructions dispatched to IQ
system.cpu.iew.iewExecLoadInsts                590987                       # Number of load instructions executed
system.cpu.iew.iewExecSquashedInsts             34467                       # Number of squashed instructions skipped in execute
system.cpu.iew.iewExecutedInsts               4314768                       # Number of executed instructions
system.cpu.iew.iewIQFullEvents                   3263                       # Number of times the IQ has become full, causing a stall
system.cpu.iew.iewIdleCycles                        0                       # Number of cycles IEW is idle
system.cpu.iew.iewLSQFullEvents                  9125                       # Number of times the LSQ has become full, causing a stall
system.cpu.iew.iewSquashCycles                  24340                       # Number of cycles IEW is squashing
system.cpu.iew.iewUnblockCycles                 15273                       # Number of cycles IEW is unblocking
system.cpu.iew.lsq.thread0.blockedLoads             0                       # Number of blocked loads due to partial load-store forwarding
system.cpu.iew.lsq.thread0.cacheBlocked           607                       # Number of times an access to memory failed due to the cache being blocked
system.cpu.iew.lsq.thread0.forwLoads            45856                       # Number of loads that had data forwarded from stores
system.cpu.iew.lsq.thread0.ignoredResponses          233                       # Number of memory responses ignored because the instruction is squashed
system.cpu.iew.lsq.thread0.invAddrLoads             0                       # Number of loads ignored due to an invalid address
system.cpu.iew.lsq.thread0.invAddrSwpfs             0                       # Number of software prefetches ignored due to an invalid address
system.cpu.iew.lsq.thread0.memOrderViolation           78                       # Number of memory ordering violations
system.cpu.iew.lsq.thread0.rescheduledLoads            0                       # Number of loads that were rescheduled
system.cpu.iew.lsq.thread0.squashedLoads       115441                       # Number of loads squashed
system.cpu.iew.lsq.thread0.squashedStores        30116                       # Number of stores squashed
system.cpu.iew.memOrderViolationEvents             78                       # Number of memory order violations
system.cpu.iew.predictedNotTakenIncorrect        20558                       # Number of branches that were predicted not taken incorrectly
system.cpu.iew.predictedTakenIncorrect           8007                       # Number of branches that were predicted taken incorrectly
system.cpu.iew.wb_consumers                   6080862                       # num instructions consuming a value
system.cpu.iew.wb_count                       4293176                       # cumulative count of insts written-back
system.cpu.iew.wb_fanout                     0.564796                       # average fanout of values written-back
system.cpu.iew.wb_producers                   3434444                       # num instructions producing a value
system.cpu.iew.wb_rate                       1.535063                       # insts written-back per cycle
system.cpu.iew.wb_sent                        4300038                       # cumulative count of insts sent to commit
system.cpu.int_regfile_reads                  6694916                       # number of integer regfile reads
system.cpu.int_regfile_writes                 3718766                       # number of integer regfile writes
system.cpu.ipc                               0.779748                       # IPC: Instructions Per Cycle
system.cpu.ipc_total                         0.779748                       # IPC: Total IPC of All Threads
system.cpu.iq.FU_type_0::No_OpClass             26044      0.60%      0.60% # Type of FU issued
system.cpu.iq.FU_type_0::IntAlu               3422226     78.69%     79.28% # Type of FU issued
system.cpu.iq.FU_type_0::IntMult                 5394      0.12%     79.41% # Type of FU issued
system.cpu.iq.FU_type_0::IntDiv                 41650      0.96%     80.37% # Type of FU issued
system.cpu.iq.FU_type_0::FloatAdd                4246      0.10%     80.46% # Type of FU issued
system.cpu.iq.FU_type_0::FloatCmp                   0      0.00%     80.46% # Type of FU issued
system.cpu.iq.FU_type_0::FloatCvt                1228      0.03%     80.49% # Type of FU issued
system.cpu.iq.FU_type_0::FloatMult                  0      0.00%     80.49% # Type of FU issued
system.cpu.iq.FU_type_0::FloatMultAcc               0      0.00%     80.49% # Type of FU issued
system.cpu.iq.FU_type_0::FloatDiv                   0      0.00%     80.49% # Type of FU issued
system.cpu.iq.FU_type_0::FloatMisc                  0      0.00%     80.49% # Type of FU issued
system.cpu.iq.FU_type_0::FloatSqrt                  0      0.00%     80.49% # Type of FU issued
system.cpu.iq.FU_type_0::SimdAdd                 6745      0.16%     80.65% # Type of FU issued
system.cpu.iq.FU_type_0::SimdAddAcc                 0      0.00%     80.65% # Type of FU issued
system.cpu.iq.FU_type_0::SimdAlu                14971      0.34%     80.99% # Type of FU issued
system.cpu.iq.FU_type_0::SimdCmp                    0      0.00%     80.99% # Type of FU issued
system.cpu.iq.FU_type_0::SimdCvt                13629      0.31%     81.30% # Type of FU issued
system.cpu.iq.FU_type_0::SimdMisc                7004      0.16%     81.47% # Type of FU issued
system.cpu.iq.FU_type_0::SimdMult                   0      0.00%     81.47% # Type of FU issued
system.cpu.iq.FU_type_0::SimdMultAcc                0      0.00%     81.47% # Type of FU issued
system.cpu.iq.FU_type_0::SimdShift               1994      0.05%     81.51% # Type of FU issued
system.cpu.iq.FU_type_0::SimdShiftAcc               0      0.00%     81.51% # Type of FU issued
system.cpu.iq.FU_type_0::SimdDiv                    0      0.00%     81.51% # Type of FU issued
system.cpu.iq.FU_type_0::SimdSqrt                   0      0.00%     81.51% # Type of FU issued
system.cpu.iq.FU_type_0::SimdFloatAdd               0      0.00%     81.51% # Type of FU issued
system.cpu.iq.FU_type_0::SimdFloatAlu               0      0.00%     81.51% # Type of FU issued
system.cpu.iq.FU_type_0::SimdFloatCmp               0      0.00%     81.51% # Type of FU issued
system.cpu.iq.FU_type_0::SimdFloatCvt               0      0.00%     81.51% # Type of FU issued
system.cpu.iq.FU_type_0::SimdFloatDiv               0      0.00%     81.51% # Type of FU issued
system.cpu.iq.FU_type_0::SimdFloatMisc              0      0.00%     81.51% # Type of FU issued
system.cpu.iq.FU_type_0::SimdFloatMult              0      0.00%     81.51% # Type of FU issued
system.cpu.iq.FU_type_0::SimdFloatMultAcc            0      0.00%     81.51% # Type of FU issued
system.cpu.iq.FU_type_0::SimdFloatSqrt              0      0.00%     81.51% # Type of FU issued
system.cpu.iq.FU_type_0::SimdReduceAdd              0      0.00%     81.51% # Type of FU issued
system.cpu.iq.FU_type_0::SimdReduceAlu              0      0.00%     81.51% # Type of FU issued
system.cpu.iq.FU_type_0::SimdReduceCmp              0      0.00%     81.51% # Type of FU issued
system.cpu.iq.FU_type_0::SimdFloatReduceAdd            0      0.00%     81.51% # Type of FU issued
system.cpu.iq.FU_type_0::SimdFloatReduceCmp            0      0.00%     81.51% # Type of FU issued
system.cpu.iq.FU_type_0::SimdAes                    0      0.00%     81.51% # Type of FU issued
system.cpu.iq.FU_type_0::SimdAesMix                 0      0.00%     81.51% # Type of FU issued
system.cpu.iq.FU_type_0::SimdSha1Hash               0      0.00%     81.51% # Type of FU issued
system.cpu.iq.FU_type_0::SimdSha1Hash2              0      0.00%     81.51% # Type of FU issued
system.cpu.iq.FU_type_0::SimdSha256Hash             0      0.00%     81.51% # Type of FU issued
system.cpu.iq.FU_type_0::SimdSha256Hash2            0      0.00%     81.51% # Type of FU issued
system.cpu.iq.FU_type_0::SimdShaSigma2              0      0.00%     81.51% # Type of FU issued
system.cpu.iq.FU_type_0::SimdShaSigma3              0      0.00%     81.51% # Type of FU issued
system.cpu.iq.FU_type_0::SimdPredAlu                0      0.00%     81.51% # Type of FU issued
system.cpu.iq.FU_type_0::MemRead               576635     13.26%     94.77% # Type of FU issued
system.cpu.iq.FU_type_0::MemWrite              189201      4.35%     99.12% # Type of FU issued
system.cpu.iq.FU_type_0::FloatMemRead           24680      0.57%     99.69% # Type of FU issued
system.cpu.iq.FU_type_0::FloatMemWrite          13591      0.31%    100.00% # Type of FU issued
system.cpu.iq.FU_type_0::IprAccess                  0      0.00%    100.00% # Type of FU issued
system.cpu.iq.FU_type_0::InstPrefetch               0      0.00%    100.00% # Type of FU issued
system.cpu.iq.FU_type_0::total                4349238                       # Type of FU issued
system.cpu.iq.fp_alu_accesses                   89071                       # Number of floating point alu accesses
system.cpu.iq.fp_inst_queue_reads              179420                       # Number of floating instruction queue reads
system.cpu.iq.fp_inst_queue_wakeup_accesses        85845                       # Number of floating instruction queue wakeup accesses
system.cpu.iq.fp_inst_queue_writes             129212                       # Number of floating instruction queue writes
system.cpu.iq.fu_busy_cnt                           0                       # FU busy when requested
system.cpu.iq.fu_busy_rate                          0                       # FU busy rate (busy events/executed inst)
system.cpu.iq.fu_full::No_OpClass                   0                       # attempts to use FU when none available
system.cpu.iq.fu_full::IntAlu                       0                       # attempts to use FU when none available
system.cpu.iq.fu_full::IntMult                      0                       # attempts to use FU when none available
system.cpu.iq.fu_full::IntDiv                       0                       # attempts to use FU when none available
system.cpu.iq.fu_full::FloatAdd                     0                       # attempts to use FU when none available
system.cpu.iq.fu_full::FloatCmp                     0                       # attempts to use FU when none available
system.cpu.iq.fu_full::FloatCvt                     0                       # attempts to use FU when none available
system.cpu.iq.fu_full::FloatMult                    0                       # attempts to use FU when none available
system.cpu.iq.fu_full::FloatMultAcc                 0                       # attempts to use FU when none available
system.cpu.iq.fu_full::FloatDiv                     0                       # attempts to use FU when none available
system.cpu.iq.fu_full::FloatMisc                    0                       # attempts to use FU when none available
system.cpu.iq.fu_full::FloatSqrt                    0                       # attempts to use FU when none available
system.cpu.iq.fu_full::SimdAdd                      0                       # attempts to use FU when none available
system.cpu.iq.fu_full::SimdAddAcc                   0                       # attempts to use FU when none available
system.cpu.iq.fu_full::SimdAlu                      0                       # attempts to use FU when none available
system.cpu.iq.fu_full::SimdCmp                      0                       # attempts to use FU when none available
system.cpu.iq.fu_full::SimdCvt                      0                       # attempts to use FU when none available
system.cpu.iq.fu_full::SimdMisc                     0                       # attempts to use FU when none available
system.cpu.iq.fu_full::SimdMult                     0                       # attempts to use FU when none available
system.cpu.iq.fu_full::SimdMultAcc                  0                       # attempts to use FU when none available
system.cpu.iq.fu_full::SimdShift                    0                       # attempts to use FU when none available
system.cpu.iq.fu_full::SimdShiftAcc                 0                       # attempts to use FU when none available
system.cpu.iq.fu_full::SimdDiv                      0                       # attempts to use FU when none available
system.cpu.iq.fu_full::SimdSqrt                     0                       # attempts to use FU when none available
system.cpu.iq.fu_full::SimdFloatAdd                 0                       # attempts to use FU when none available
system.cpu.iq.fu_full::SimdFloatAlu                 0                       # attempts to use FU when none available
system.cpu.iq.fu_full::SimdFloatCmp                 0                       # attempts to use FU when none available
system.cpu.iq.fu_full::SimdFloatCvt                 0                       # attempts to use FU when none available
system.cpu.iq.fu_full::SimdFloatDiv                 0                       # attempts to use FU when none available
system.cpu.iq.fu_full::SimdFloatMisc                0                       # attempts to use FU when none available
system.cpu.iq.fu_full::SimdFloatMult                0                       # attempts to use FU when none available
system.cpu.iq.fu_full::SimdFloatMultAcc             0                       # attempts to use FU when none available
system.cpu.iq.fu_full::SimdFloatSqrt                0                       # attempts to use FU when none available
system.cpu.iq.fu_full::SimdReduceAdd                0                       # attempts to use FU when none available
system.cpu.iq.fu_full::SimdReduceAlu                0                       # attempts to use FU when none available
system.cpu.iq.fu_full::SimdReduceCmp                0                       # attempts to use FU when none available
system.cpu.iq.fu_full::SimdFloatReduceAdd            0                       # attempts to use FU when none available
system.cpu.iq.fu_full::SimdFloatReduceCmp            0                       # attempts to use FU when none available
system.cpu.iq.fu_full::SimdAes                      0                       # attempts to use FU when none available
system.cpu.iq.fu_full::SimdAesMix                   0                       # attempts to use FU when none available
system.cpu.iq.fu_full::SimdSha1Hash                 0                       # attempts to use FU when none available
system.cpu.iq.fu_full::SimdSha1Hash2                0                       # attempts to use FU when none available
system.cpu.iq.fu_full::SimdSha256Hash               0                       # attempts to use FU when none available
system.cpu.iq.fu_full::SimdSha256Hash2              0                       # attempts to use FU when none available
system.cpu.iq.fu_full::SimdShaSigma2                0                       # attempts to use FU when none available
system.cpu.iq.fu_full::SimdShaSigma3                0                       # attempts to use FU when none available
system.cpu.iq.fu_full::SimdPredAlu                  0                       # attempts to use FU when none available
system.cpu.iq.fu_full::MemRead                      0                       # attempts to use FU when none available
system.cpu.iq.fu_full::MemWrite                     0                       # attempts to use FU when none available
system.cpu.iq.fu_full::FloatMemRead                 0                       # attempts to use FU when none available
system.cpu.iq.fu_full::FloatMemWrite                0                       # attempts to use FU when none available
system.cpu.iq.fu_full::IprAccess                    0                       # attempts to use FU when none available
system.cpu.iq.fu_full::InstPrefetch                 0                       # attempts to use FU when none available
system.cpu.iq.int_alu_accesses                4234123                       # Number of integer alu accesses
system.cpu.iq.int_inst_queue_reads           11186224                       # Number of integer instruction queue reads
system.cpu.iq.int_inst_queue_wakeup_accesses      4207331                       # Number of integer instruction queue wakeup accesses
system.cpu.iq.int_inst_queue_writes           5425678                       # Number of integer instruction queue writes
system.cpu.iq.iqInstsAdded                    4668836                       # Number of instructions added to the IQ (excludes non-spec)
system.cpu.iq.iqInstsIssued                   4349238                       # Number of instructions issued
system.cpu.iq.iqNonSpecInstsAdded                1117                       # Number of non-speculative instructions added to the IQ
system.cpu.iq.iqSquashedInstsExamined          884861                       # Number of squashed instructions iterated over during squash; mainly for profiling
system.cpu.iq.iqSquashedInstsIssued             18770                       # Number of squashed instructions issued
system.cpu.iq.iqSquashedNonSpecRemoved            385                       # Number of squashed non-spec instructions that were removed
system.cpu.iq.iqSquashedOperandsExamined      1319413                       # Number of squashed operands that are examined and possibly removed from graph
system.cpu.iq.issued_per_cycle::samples       2648401                       # Number of insts issued each cycle
system.cpu.iq.issued_per_cycle::mean         1.642213                       # Number of insts issued each cycle
system.cpu.iq.issued_per_cycle::stdev        1.665770                       # Number of insts issued each cycle
system.cpu.iq.issued_per_cycle::underflows            0      0.00%      0.00% # Number of insts issued each cycle
system.cpu.iq.issued_per_cycle::0             1170083     44.18%     44.18% # Number of insts issued each cycle
system.cpu.iq.issued_per_cycle::1              192189      7.26%     51.44% # Number of insts issued each cycle
system.cpu.iq.issued_per_cycle::2              316570     11.95%     63.39% # Number of insts issued each cycle
system.cpu.iq.issued_per_cycle::3              354327     13.38%     76.77% # Number of insts issued each cycle
system.cpu.iq.issued_per_cycle::4              615232     23.23%    100.00% # Number of insts issued each cycle
system.cpu.iq.issued_per_cycle::overflows            0      0.00%    100.00% # Number of insts issued each cycle
system.cpu.iq.issued_per_cycle::min_value            0                       # Number of insts issued each cycle
system.cpu.iq.issued_per_cycle::max_value            4                       # Number of insts issued each cycle
system.cpu.iq.issued_per_cycle::total         2648401                       # Number of insts issued each cycle
system.cpu.iq.rate                           1.555109                       # Inst issue rate
system.cpu.iq.vec_alu_accesses                      0                       # Number of vector alu accesses
system.cpu.iq.vec_inst_queue_reads                  0                       # Number of vector instruction queue reads
system.cpu.iq.vec_inst_queue_wakeup_accesses            0                       # Number of vector instruction queue wakeup accesses
system.cpu.iq.vec_inst_queue_writes                 0                       # Number of vector instruction queue writes
system.cpu.itb.rdAccesses                           0                       # TLB accesses on read requests
system.cpu.itb.rdMisses                             0                       # TLB misses on read requests
system.cpu.itb.wrAccesses                      252835                       # TLB accesses on write requests
system.cpu.itb.wrMisses                           303                       # TLB misses on write requests
system.cpu.memDep0.conflictingLoads             17969                       # Number of conflicting loads.
system.cpu.memDep0.conflictingStores             8518                       # Number of conflicting stores.
system.cpu.memDep0.insertedLoads               621885                       # Number of loads inserted to the mem dependence unit.
system.cpu.memDep0.insertedStores              210647                       # Number of stores inserted to the mem dependence unit.
system.cpu.misc_regfile_reads                 1612191                       # number of misc regfile reads
system.cpu.misc_regfile_writes                    675                       # number of misc regfile writes
system.cpu.numCycles                          2796742                       # number of cpu cycles simulated
system.cpu.numWorkItemsCompleted                    0                       # number of work items this cpu completed
system.cpu.numWorkItemsStarted                      0                       # number of work items this cpu started
system.cpu.process.numSyscalls                     56                       # Number of system calls
system.cpu.rename.BlockCycles                  836184                       # Number of cycles rename is blocking
system.cpu.rename.CommittedMaps               5216730                       # Number of HB maps that are committed
system.cpu.rename.FullRegisterEvents              188                       # Number of times there has been no free registers
system.cpu.rename.IQFullEvents                  58158                       # Number of times rename has blocked due to IQ full
system.cpu.rename.IdleCycles                   352957                       # Number of cycles rename is idle
system.cpu.rename.LQFullEvents                  17682                       # Number of times rename has blocked due to LQ full
system.cpu.rename.ROBFullEvents                  4590                       # Number of times rename has blocked due to ROB full
system.cpu.rename.RenameLookups              12504720                       # Number of register rename lookups that rename has made
system.cpu.rename.RenamedInsts                4811573                       # Number of instructions processed by rename
system.cpu.rename.RenamedOperands             6611156                       # Number of destination operands rename has renamed
system.cpu.rename.RunCycles                   1214544                       # Number of cycles rename is running
system.cpu.rename.SQFullEvents                  84732                       # Number of times rename has blocked due to SQ full
system.cpu.rename.SquashCycles                  24340                       # Number of cycles rename is squashing
system.cpu.rename.UnblockCycles                200859                       # Number of cycles rename is unblocking
system.cpu.rename.UndoneMaps                  1394403                       # Number of HB maps that are undone due to squashing
system.cpu.rename.fp_rename_lookups            152259                       # Number of floating rename lookups
system.cpu.rename.int_rename_lookups          7640911                       # Number of integer rename lookups
system.cpu.rename.serializeStallCycles          19517                       # count of cycles rename stalled for serializing inst
system.cpu.rename.serializingInsts                871                       # count of serializing insts renamed
system.cpu.rename.skidInsts                    235593                       # count of insts added to the skid buffer
system.cpu.rename.tempSerializingInsts            919                       # count of temporary serializing insts renamed
system.cpu.rob.rob_reads                      6448333                       # The number of ROB reads
system.cpu.rob.rob_writes                     9582347                       # The number of ROB writes
system.cpu.timesIdled                            1476                       # Number of times that the entire CPU went into an idle state and unscheduled itself
system.l2bus.snoop_filter.hit_multi_requests            9                       # Number of requests hitting in the snoop filter with multiple (>1) holders of the requested data.
system.l2bus.snoop_filter.hit_multi_snoops            1                       # Number of snoops hitting in the snoop filter with multiple (>1) holders of the requested data.
system.l2bus.snoop_filter.hit_single_requests        18188                       # Number of requests hitting in the snoop filter with a single holder of the requested data.
system.l2bus.snoop_filter.hit_single_snoops          449                       # Number of snoops hitting in the snoop filter with a single holder of the requested data.
system.l2bus.snoop_filter.tot_requests          37654                       # Total number of requests made to the snoop filter.
system.l2bus.snoop_filter.tot_snoops              450                       # Total number of snoops made to the snoop filter.
system.l2cache.prefetcher.num_hwpf_issued          752                       # number of hwpf issued
system.l2cache.prefetcher.pfBufferHit               0                       # number of redundant prefetches already in prefetch queue
system.l2cache.prefetcher.pfIdentified            752                       # number of prefetch candidates identified
system.l2cache.prefetcher.pfInCache                 0                       # number of redundant prefetches already in cache/mshr dropped
system.l2cache.prefetcher.pfRemovedFull             0                       # number of prefetches dropped due to prefetch queue size
system.l2cache.prefetcher.pfSpanPage               92                       # number of prefetches that crossed the page
system.membus.snoop_filter.hit_multi_requests            0                       # Number of requests hitting in the snoop filter with multiple (>1) holders of the requested data.
system.membus.snoop_filter.hit_multi_snoops            0                       # Number of snoops hitting in the snoop filter with multiple (>1) holders of the requested data.
system.membus.snoop_filter.hit_single_requests         9391                       # Number of requests hitting in the snoop filter with a single holder of the requested data.
system.membus.snoop_filter.hit_single_snoops            0                       # Number of snoops hitting in the snoop filter with a single holder of the requested data.
system.membus.snoop_filter.tot_requests         22901                       # Total number of requests made to the snoop filter.
system.membus.snoop_filter.tot_snoops               0                       # Total number of snoops made to the snoop filter.
system.membus.pwrStateResidencyTicks::UNDEFINED   1118696400                       # Cumulative time (in ticks) in various power states
system.membus.trans_dist::ReadResp              12086                       # Transaction distribution
system.membus.trans_dist::WritebackDirty         1319                       # Transaction distribution
system.membus.trans_dist::CleanEvict             8072                       # Transaction distribution
system.membus.trans_dist::ReadExReq              1424                       # Transaction distribution
system.membus.trans_dist::ReadExResp             1424                       # Transaction distribution
system.membus.trans_dist::ReadSharedReq         12086                       # Transaction distribution
system.membus.pkt_count_system.l2cache.mem_side::system.mem_ctrl.port        36411                       # Packet count per connected master and slave (bytes)
system.membus.pkt_count_system.l2cache.mem_side::total        36411                       # Packet count per connected master and slave (bytes)
system.membus.pkt_count::total                  36411                       # Packet count per connected master and slave (bytes)
system.membus.pkt_size_system.l2cache.mem_side::system.mem_ctrl.port       949056                       # Cumulative packet size per connected master and slave (bytes)
system.membus.pkt_size_system.l2cache.mem_side::total       949056                       # Cumulative packet size per connected master and slave (bytes)
system.membus.pkt_size::total                  949056                       # Cumulative packet size per connected master and slave (bytes)
system.membus.snoops                                0                       # Total snoops (count)
system.membus.snoopTraffic                          0                       # Total snoop traffic (bytes)
system.membus.snoop_fanout::samples             13510                       # Request fanout histogram
system.membus.snoop_fanout::mean                    0                       # Request fanout histogram
system.membus.snoop_fanout::stdev                   0                       # Request fanout histogram
system.membus.snoop_fanout::underflows              0      0.00%      0.00% # Request fanout histogram
system.membus.snoop_fanout::0                   13510    100.00%    100.00% # Request fanout histogram
system.membus.snoop_fanout::1                       0      0.00%    100.00% # Request fanout histogram
system.membus.snoop_fanout::overflows               0      0.00%    100.00% # Request fanout histogram
system.membus.snoop_fanout::min_value               0                       # Request fanout histogram
system.membus.snoop_fanout::max_value               0                       # Request fanout histogram
system.membus.snoop_fanout::total               13510                       # Request fanout histogram
system.membus.reqLayer2.occupancy            11304589                       # Layer occupancy (ticks)
system.membus.reqLayer2.utilization               1.0                       # Layer utilization (%)
system.membus.respLayer0.occupancy           29338911                       # Layer occupancy (ticks)
system.membus.respLayer0.utilization              2.6                       # Layer utilization (%)
system.l2bus.pwrStateResidencyTicks::UNDEFINED   1118696400                       # Cumulative time (in ticks) in various power states
system.l2bus.trans_dist::ReadResp               17294                       # Transaction distribution
system.l2bus.trans_dist::WritebackDirty          4118                       # Transaction distribution
system.l2bus.trans_dist::CleanEvict             23548                       # Transaction distribution
system.l2bus.trans_dist::HardPFReq               1051                       # Transaction distribution
system.l2bus.trans_dist::ReadExReq               2173                       # Transaction distribution
system.l2bus.trans_dist::ReadExResp              2173                       # Transaction distribution
system.l2bus.trans_dist::ReadSharedReq          17294                       # Transaction distribution
system.l2bus.pkt_count_system.cpu.icache.mem_side::system.l2cache.cpu_side         7536                       # Packet count per connected master and slave (bytes)
system.l2bus.pkt_count_system.cpu.dcache.mem_side::system.l2cache.cpu_side        49583                       # Packet count per connected master and slave (bytes)
system.l2bus.pkt_count::total                   57119                       # Packet count per connected master and slave (bytes)
system.l2bus.pkt_size_system.cpu.icache.mem_side::system.l2cache.cpu_side       166144                       # Cumulative packet size per connected master and slave (bytes)
system.l2bus.pkt_size_system.cpu.dcache.mem_side::system.l2cache.cpu_side      1258752                       # Cumulative packet size per connected master and slave (bytes)
system.l2bus.pkt_size::total                  1424896                       # Cumulative packet size per connected master and slave (bytes)
system.l2bus.snoops                             10532                       # Total snoops (count)
system.l2bus.snoopTraffic                       84544                       # Total snoop traffic (bytes)
system.l2bus.snoop_fanout::samples              29997                       # Request fanout histogram
system.l2bus.snoop_fanout::mean              0.015368                       # Request fanout histogram
system.l2bus.snoop_fanout::stdev             0.123285                       # Request fanout histogram
system.l2bus.snoop_fanout::underflows               0      0.00%      0.00% # Request fanout histogram
system.l2bus.snoop_fanout::0                    29537     98.47%     98.47% # Request fanout histogram
system.l2bus.snoop_fanout::1                      459      1.53%    100.00% # Request fanout histogram
system.l2bus.snoop_fanout::2                        1      0.00%    100.00% # Request fanout histogram
system.l2bus.snoop_fanout::overflows                0      0.00%    100.00% # Request fanout histogram
system.l2bus.snoop_fanout::min_value                0                       # Request fanout histogram
system.l2bus.snoop_fanout::max_value                2                       # Request fanout histogram
system.l2bus.snoop_fanout::total                29997                       # Request fanout histogram
system.l2bus.respLayer1.occupancy            20242800                       # Layer occupancy (ticks)
system.l2bus.respLayer1.utilization               1.8                       # Layer utilization (%)
system.l2bus.reqLayer0.occupancy             18755394                       # Layer occupancy (ticks)
system.l2bus.reqLayer0.utilization                1.7                       # Layer utilization (%)
system.l2bus.respLayer0.occupancy             3117600                       # Layer occupancy (ticks)
system.l2bus.respLayer0.utilization               0.3                       # Layer utilization (%)
system.clk_domain.clock                           400                       # Clock period in ticks
system.clk_domain.voltage_domain.voltage            1                       # Voltage in Volts
system.cpu.pwrStateResidencyTicks::ON      1118696400                       # Cumulative time (in ticks) in various power states
system.cpu.icache.pwrStateResidencyTicks::UNDEFINED   1118696400                       # Cumulative time (in ticks) in various power states
system.cpu.icache.demand_hits::.cpu.inst       249472                       # number of demand (read+write) hits
system.cpu.icache.demand_hits::total           249472                       # number of demand (read+write) hits
system.cpu.icache.overall_hits::.cpu.inst       249472                       # number of overall hits
system.cpu.icache.overall_hits::total          249472                       # number of overall hits
system.cpu.icache.demand_misses::.cpu.inst         3297                       # number of demand (read+write) misses
system.cpu.icache.demand_misses::total           3297                       # number of demand (read+write) misses
system.cpu.icache.overall_misses::.cpu.inst         3297                       # number of overall misses
system.cpu.icache.overall_misses::total          3297                       # number of overall misses
system.cpu.icache.demand_miss_latency::.cpu.inst    165424800                       # number of demand (read+write) miss cycles
system.cpu.icache.demand_miss_latency::total    165424800                       # number of demand (read+write) miss cycles
system.cpu.icache.overall_miss_latency::.cpu.inst    165424800                       # number of overall miss cycles
system.cpu.icache.overall_miss_latency::total    165424800                       # number of overall miss cycles
system.cpu.icache.demand_accesses::.cpu.inst       252769                       # number of demand (read+write) accesses
system.cpu.icache.demand_accesses::total       252769                       # number of demand (read+write) accesses
system.cpu.icache.overall_accesses::.cpu.inst       252769                       # number of overall (read+write) accesses
system.cpu.icache.overall_accesses::total       252769                       # number of overall (read+write) accesses
system.cpu.icache.demand_miss_rate::.cpu.inst     0.013044                       # miss rate for demand accesses
system.cpu.icache.demand_miss_rate::total     0.013044                       # miss rate for demand accesses
system.cpu.icache.overall_miss_rate::.cpu.inst     0.013044                       # miss rate for overall accesses
system.cpu.icache.overall_miss_rate::total     0.013044                       # miss rate for overall accesses
system.cpu.icache.demand_avg_miss_latency::.cpu.inst 50174.340309                       # average overall miss latency
system.cpu.icache.demand_avg_miss_latency::total 50174.340309                       # average overall miss latency
system.cpu.icache.overall_avg_miss_latency::.cpu.inst 50174.340309                       # average overall miss latency
system.cpu.icache.overall_avg_miss_latency::total 50174.340309                       # average overall miss latency
system.cpu.icache.blocked_cycles::no_mshrs           39                       # number of cycles access was blocked
system.cpu.icache.blocked_cycles::no_targets            0                       # number of cycles access was blocked
system.cpu.icache.blocked::no_mshrs                 2                       # number of cycles access was blocked
system.cpu.icache.blocked::no_targets               0                       # number of cycles access was blocked
system.cpu.icache.avg_blocked_cycles::no_mshrs    19.500000                       # average number of cycles each access was blocked
system.cpu.icache.avg_blocked_cycles::no_targets          nan                       # average number of cycles each access was blocked
system.cpu.icache.demand_mshr_hits::.cpu.inst          699                       # number of demand (read+write) MSHR hits
system.cpu.icache.demand_mshr_hits::total          699                       # number of demand (read+write) MSHR hits
system.cpu.icache.overall_mshr_hits::.cpu.inst          699                       # number of overall MSHR hits
system.cpu.icache.overall_mshr_hits::total          699                       # number of overall MSHR hits
system.cpu.icache.demand_mshr_misses::.cpu.inst         2598                       # number of demand (read+write) MSHR misses
system.cpu.icache.demand_mshr_misses::total         2598                       # number of demand (read+write) MSHR misses
system.cpu.icache.overall_mshr_misses::.cpu.inst         2598                       # number of overall MSHR misses
system.cpu.icache.overall_mshr_misses::total         2598                       # number of overall MSHR misses
system.cpu.icache.demand_mshr_miss_latency::.cpu.inst    131522800                       # number of demand (read+write) MSHR miss cycles
system.cpu.icache.demand_mshr_miss_latency::total    131522800                       # number of demand (read+write) MSHR miss cycles
system.cpu.icache.overall_mshr_miss_latency::.cpu.inst    131522800                       # number of overall MSHR miss cycles
system.cpu.icache.overall_mshr_miss_latency::total    131522800                       # number of overall MSHR miss cycles
system.cpu.icache.demand_mshr_miss_rate::.cpu.inst     0.010278                       # mshr miss rate for demand accesses
system.cpu.icache.demand_mshr_miss_rate::total     0.010278                       # mshr miss rate for demand accesses
system.cpu.icache.overall_mshr_miss_rate::.cpu.inst     0.010278                       # mshr miss rate for overall accesses
system.cpu.icache.overall_mshr_miss_rate::total     0.010278                       # mshr miss rate for overall accesses
system.cpu.icache.demand_avg_mshr_miss_latency::.cpu.inst 50624.634334                       # average overall mshr miss latency
system.cpu.icache.demand_avg_mshr_miss_latency::total 50624.634334                       # average overall mshr miss latency
system.cpu.icache.overall_avg_mshr_miss_latency::.cpu.inst 50624.634334                       # average overall mshr miss latency
system.cpu.icache.overall_avg_mshr_miss_latency::total 50624.634334                       # average overall mshr miss latency
system.cpu.icache.replacements                   2342                       # number of replacements
system.cpu.icache.ReadReq_hits::.cpu.inst       249472                       # number of ReadReq hits
system.cpu.icache.ReadReq_hits::total          249472                       # number of ReadReq hits
system.cpu.icache.ReadReq_misses::.cpu.inst         3297                       # number of ReadReq misses
system.cpu.icache.ReadReq_misses::total          3297                       # number of ReadReq misses
system.cpu.icache.ReadReq_miss_latency::.cpu.inst    165424800                       # number of ReadReq miss cycles
system.cpu.icache.ReadReq_miss_latency::total    165424800                       # number of ReadReq miss cycles
system.cpu.icache.ReadReq_accesses::.cpu.inst       252769                       # number of ReadReq accesses(hits+misses)
system.cpu.icache.ReadReq_accesses::total       252769                       # number of ReadReq accesses(hits+misses)
system.cpu.icache.ReadReq_miss_rate::.cpu.inst     0.013044                       # miss rate for ReadReq accesses
system.cpu.icache.ReadReq_miss_rate::total     0.013044                       # miss rate for ReadReq accesses
system.cpu.icache.ReadReq_avg_miss_latency::.cpu.inst 50174.340309                       # average ReadReq miss latency
system.cpu.icache.ReadReq_avg_miss_latency::total 50174.340309                       # average ReadReq miss latency
system.cpu.icache.ReadReq_mshr_hits::.cpu.inst          699                       # number of ReadReq MSHR hits
system.cpu.icache.ReadReq_mshr_hits::total          699                       # number of ReadReq MSHR hits
system.cpu.icache.ReadReq_mshr_misses::.cpu.inst         2598                       # number of ReadReq MSHR misses
system.cpu.icache.ReadReq_mshr_misses::total         2598                       # number of ReadReq MSHR misses
system.cpu.icache.ReadReq_mshr_miss_latency::.cpu.inst    131522800                       # number of ReadReq MSHR miss cycles
system.cpu.icache.ReadReq_mshr_miss_latency::total    131522800                       # number of ReadReq MSHR miss cycles
system.cpu.icache.ReadReq_mshr_miss_rate::.cpu.inst     0.010278                       # mshr miss rate for ReadReq accesses
system.cpu.icache.ReadReq_mshr_miss_rate::total     0.010278                       # mshr miss rate for ReadReq accesses
system.cpu.icache.ReadReq_avg_mshr_miss_latency::.cpu.inst 50624.634334                       # average ReadReq mshr miss latency
system.cpu.icache.ReadReq_avg_mshr_miss_latency::total 50624.634334                       # average ReadReq mshr miss latency
system.cpu.icache.prefetcher.pwrStateResidencyTicks::UNDEFINED   1118696400                       # Cumulative time (in ticks) in various power states
system.cpu.icache.tags.pwrStateResidencyTicks::UNDEFINED   1118696400                       # Cumulative time (in ticks) in various power states
system.cpu.icache.tags.tagsinuse           253.539463                       # Cycle average of tags in use
system.cpu.icache.tags.total_refs              206303                       # Total number of references to valid blocks.
system.cpu.icache.tags.sampled_refs              2342                       # Sample count of references to valid blocks.
system.cpu.icache.tags.avg_refs             88.088386                       # Average number of references to valid blocks.
system.cpu.icache.tags.warmup_cycle             66400                       # Cycle when the warmup percentage was hit.
system.cpu.icache.tags.occ_blocks::.cpu.inst   253.539463                       # Average occupied blocks per requestor
system.cpu.icache.tags.occ_percent::.cpu.inst     0.990389                       # Average percentage of cache occupancy
system.cpu.icache.tags.occ_percent::total     0.990389                       # Average percentage of cache occupancy
system.cpu.icache.tags.occ_task_id_blocks::1024          256                       # Occupied blocks per task id
system.cpu.icache.tags.age_task_id_blocks_1024::0           74                       # Occupied blocks per task id
system.cpu.icache.tags.age_task_id_blocks_1024::1          127                       # Occupied blocks per task id
system.cpu.icache.tags.age_task_id_blocks_1024::2           50                       # Occupied blocks per task id
system.cpu.icache.tags.age_task_id_blocks_1024::3            5                       # Occupied blocks per task id
system.cpu.icache.tags.occ_task_id_percent::1024            1                       # Percentage of cache occupancy per task id
system.cpu.icache.tags.tag_accesses            508136                       # Number of tag accesses
system.cpu.icache.tags.data_accesses           508136                       # Number of data accesses
system.cpu.dtb.walker.pwrStateResidencyTicks::UNDEFINED   1118696400                       # Cumulative time (in ticks) in various power states
system.cpu.interrupts.clk_domain.clock           6400                       # Clock period in ticks
system.cpu.itb.walker.pwrStateResidencyTicks::UNDEFINED   1118696400                       # Cumulative time (in ticks) in various power states
system.cpu.dcache.pwrStateResidencyTicks::UNDEFINED   1118696400                       # Cumulative time (in ticks) in various power states
system.cpu.dcache.demand_hits::.cpu.data       688691                       # number of demand (read+write) hits
system.cpu.dcache.demand_hits::total           688691                       # number of demand (read+write) hits
system.cpu.dcache.overall_hits::.cpu.data       688691                       # number of overall hits
system.cpu.dcache.overall_hits::total          688691                       # number of overall hits
system.cpu.dcache.demand_misses::.cpu.data        34092                       # number of demand (read+write) misses
system.cpu.dcache.demand_misses::total          34092                       # number of demand (read+write) misses
system.cpu.dcache.overall_misses::.cpu.data        34092                       # number of overall misses
system.cpu.dcache.overall_misses::total         34092                       # number of overall misses
system.cpu.dcache.demand_miss_latency::.cpu.data   1655931998                       # number of demand (read+write) miss cycles
system.cpu.dcache.demand_miss_latency::total   1655931998                       # number of demand (read+write) miss cycles
system.cpu.dcache.overall_miss_latency::.cpu.data   1655931998                       # number of overall miss cycles
system.cpu.dcache.overall_miss_latency::total   1655931998                       # number of overall miss cycles
system.cpu.dcache.demand_accesses::.cpu.data       722783                       # number of demand (read+write) accesses
system.cpu.dcache.demand_accesses::total       722783                       # number of demand (read+write) accesses
system.cpu.dcache.overall_accesses::.cpu.data       722783                       # number of overall (read+write) accesses
system.cpu.dcache.overall_accesses::total       722783                       # number of overall (read+write) accesses
system.cpu.dcache.demand_miss_rate::.cpu.data     0.047168                       # miss rate for demand accesses
system.cpu.dcache.demand_miss_rate::total     0.047168                       # miss rate for demand accesses
system.cpu.dcache.overall_miss_rate::.cpu.data     0.047168                       # miss rate for overall accesses
system.cpu.dcache.overall_miss_rate::total     0.047168                       # miss rate for overall accesses
system.cpu.dcache.demand_avg_miss_latency::.cpu.data 48572.450956                       # average overall miss latency
system.cpu.dcache.demand_avg_miss_latency::total 48572.450956                       # average overall miss latency
system.cpu.dcache.overall_avg_miss_latency::.cpu.data 48572.450956                       # average overall miss latency
system.cpu.dcache.overall_avg_miss_latency::total 48572.450956                       # average overall miss latency
system.cpu.dcache.blocked_cycles::no_mshrs        27917                       # number of cycles access was blocked
system.cpu.dcache.blocked_cycles::no_targets          382                       # number of cycles access was blocked
system.cpu.dcache.blocked::no_mshrs               735                       # number of cycles access was blocked
system.cpu.dcache.blocked::no_targets               3                       # number of cycles access was blocked
system.cpu.dcache.avg_blocked_cycles::no_mshrs    37.982313                       # average number of cycles each access was blocked
system.cpu.dcache.avg_blocked_cycles::no_targets   127.333333                       # average number of cycles each access was blocked
system.cpu.dcache.unused_prefetches              1736                       # number of HardPF blocks evicted w/o reference
system.cpu.dcache.writebacks::.writebacks         2799                       # number of writebacks
system.cpu.dcache.writebacks::total              2799                       # number of writebacks
system.cpu.dcache.demand_mshr_hits::.cpu.data        21662                       # number of demand (read+write) MSHR hits
system.cpu.dcache.demand_mshr_hits::total        21662                       # number of demand (read+write) MSHR hits
system.cpu.dcache.overall_mshr_hits::.cpu.data        21662                       # number of overall MSHR hits
system.cpu.dcache.overall_mshr_hits::total        21662                       # number of overall MSHR hits
system.cpu.dcache.demand_mshr_misses::.cpu.data        12430                       # number of demand (read+write) MSHR misses
system.cpu.dcache.demand_mshr_misses::total        12430                       # number of demand (read+write) MSHR misses
system.cpu.dcache.overall_mshr_misses::.cpu.data        12430                       # number of overall MSHR misses
system.cpu.dcache.overall_mshr_misses::.cpu.dcache.prefetcher         4439                       # number of overall MSHR misses
system.cpu.dcache.overall_mshr_misses::total        16869                       # number of overall MSHR misses
system.cpu.dcache.demand_mshr_miss_latency::.cpu.data    572533198                       # number of demand (read+write) MSHR miss cycles
system.cpu.dcache.demand_mshr_miss_latency::total    572533198                       # number of demand (read+write) MSHR miss cycles
system.cpu.dcache.overall_mshr_miss_latency::.cpu.data    572533198                       # number of overall MSHR miss cycles
system.cpu.dcache.overall_mshr_miss_latency::.cpu.dcache.prefetcher    255997281                       # number of overall MSHR miss cycles
system.cpu.dcache.overall_mshr_miss_latency::total    828530479                       # number of overall MSHR miss cycles
system.cpu.dcache.demand_mshr_miss_rate::.cpu.data     0.017197                       # mshr miss rate for demand accesses
system.cpu.dcache.demand_mshr_miss_rate::total     0.017197                       # mshr miss rate for demand accesses
system.cpu.dcache.overall_mshr_miss_rate::.cpu.data     0.017197                       # mshr miss rate for overall accesses
system.cpu.dcache.overall_mshr_miss_rate::.cpu.dcache.prefetcher          inf                       # mshr miss rate for overall accesses
system.cpu.dcache.overall_mshr_miss_rate::total     0.023339                       # mshr miss rate for overall accesses
system.cpu.dcache.demand_avg_mshr_miss_latency::.cpu.data 46060.595173                       # average overall mshr miss latency
system.cpu.dcache.demand_avg_mshr_miss_latency::total 46060.595173                       # average overall mshr miss latency
system.cpu.dcache.overall_avg_mshr_miss_latency::.cpu.data 46060.595173                       # average overall mshr miss latency
system.cpu.dcache.overall_avg_mshr_miss_latency::.cpu.dcache.prefetcher 57670.034017                       # average overall mshr miss latency
system.cpu.dcache.overall_avg_mshr_miss_latency::total 49115.565772                       # average overall mshr miss latency
system.cpu.dcache.replacements                  15845                       # number of replacements
system.cpu.dcache.ReadReq_hits::.cpu.data       510360                       # number of ReadReq hits
system.cpu.dcache.ReadReq_hits::total          510360                       # number of ReadReq hits
system.cpu.dcache.ReadReq_misses::.cpu.data        31887                       # number of ReadReq misses
system.cpu.dcache.ReadReq_misses::total         31887                       # number of ReadReq misses
system.cpu.dcache.ReadReq_miss_latency::.cpu.data   1545439200                       # number of ReadReq miss cycles
system.cpu.dcache.ReadReq_miss_latency::total   1545439200                       # number of ReadReq miss cycles
system.cpu.dcache.ReadReq_accesses::.cpu.data       542247                       # number of ReadReq accesses(hits+misses)
system.cpu.dcache.ReadReq_accesses::total       542247                       # number of ReadReq accesses(hits+misses)
system.cpu.dcache.ReadReq_miss_rate::.cpu.data     0.058805                       # miss rate for ReadReq accesses
system.cpu.dcache.ReadReq_miss_rate::total     0.058805                       # miss rate for ReadReq accesses
system.cpu.dcache.ReadReq_avg_miss_latency::.cpu.data 48466.120990                       # average ReadReq miss latency
system.cpu.dcache.ReadReq_avg_miss_latency::total 48466.120990                       # average ReadReq miss latency
system.cpu.dcache.ReadReq_mshr_hits::.cpu.data        21630                       # number of ReadReq MSHR hits
system.cpu.dcache.ReadReq_mshr_hits::total        21630                       # number of ReadReq MSHR hits
system.cpu.dcache.ReadReq_mshr_misses::.cpu.data        10257                       # number of ReadReq MSHR misses
system.cpu.dcache.ReadReq_mshr_misses::total        10257                       # number of ReadReq MSHR misses
system.cpu.dcache.ReadReq_mshr_miss_latency::.cpu.data    464862800                       # number of ReadReq MSHR miss cycles
system.cpu.dcache.ReadReq_mshr_miss_latency::total    464862800                       # number of ReadReq MSHR miss cycles
system.cpu.dcache.ReadReq_mshr_miss_rate::.cpu.data     0.018916                       # mshr miss rate for ReadReq accesses
system.cpu.dcache.ReadReq_mshr_miss_rate::total     0.018916                       # mshr miss rate for ReadReq accesses
system.cpu.dcache.ReadReq_avg_mshr_miss_latency::.cpu.data 45321.517013                       # average ReadReq mshr miss latency
system.cpu.dcache.ReadReq_avg_mshr_miss_latency::total 45321.517013                       # average ReadReq mshr miss latency
system.cpu.dcache.WriteReq_hits::.cpu.data       178331                       # number of WriteReq hits
system.cpu.dcache.WriteReq_hits::total         178331                       # number of WriteReq hits
system.cpu.dcache.WriteReq_misses::.cpu.data         2205                       # number of WriteReq misses
system.cpu.dcache.WriteReq_misses::total         2205                       # number of WriteReq misses
system.cpu.dcache.WriteReq_miss_latency::.cpu.data    110492798                       # number of WriteReq miss cycles
system.cpu.dcache.WriteReq_miss_latency::total    110492798                       # number of WriteReq miss cycles
system.cpu.dcache.WriteReq_accesses::.cpu.data       180536                       # number of WriteReq accesses(hits+misses)
system.cpu.dcache.WriteReq_accesses::total       180536                       # number of WriteReq accesses(hits+misses)
system.cpu.dcache.WriteReq_miss_rate::.cpu.data     0.012214                       # miss rate for WriteReq accesses
system.cpu.dcache.WriteReq_miss_rate::total     0.012214                       # miss rate for WriteReq accesses
system.cpu.dcache.WriteReq_avg_miss_latency::.cpu.data 50110.112472                       # average WriteReq miss latency
system.cpu.dcache.WriteReq_avg_miss_latency::total 50110.112472                       # average WriteReq miss latency
system.cpu.dcache.WriteReq_mshr_hits::.cpu.data           32                       # number of WriteReq MSHR hits
system.cpu.dcache.WriteReq_mshr_hits::total           32                       # number of WriteReq MSHR hits
system.cpu.dcache.WriteReq_mshr_misses::.cpu.data         2173                       # number of WriteReq MSHR misses
system.cpu.dcache.WriteReq_mshr_misses::total         2173                       # number of WriteReq MSHR misses
system.cpu.dcache.WriteReq_mshr_miss_latency::.cpu.data    107670398                       # number of WriteReq MSHR miss cycles
[...]
system.l2cache.overall_mshr_miss_rate::.l2cache.prefetcher          inf                       # mshr miss rate for overall accesses
system.l2cache.overall_mshr_miss_rate::total     0.445407                       # mshr miss rate for overall accesses
system.l2cache.demand_avg_mshr_miss_latency::.cpu.inst 58050.122850                       # average overall mshr miss latency
system.l2cache.demand_avg_mshr_miss_latency::.cpu.data 61130.181818                       # average overall mshr miss latency
system.l2cache.demand_avg_mshr_miss_latency::.cpu.dcache.prefetcher 60919.698413                       # average overall mshr miss latency
system.l2cache.demand_avg_mshr_miss_latency::total 59429.719463                       # average overall mshr miss latency
system.l2cache.overall_avg_mshr_miss_latency::.cpu.inst 58050.122850                       # average overall mshr miss latency
system.l2cache.overall_avg_mshr_miss_latency::.cpu.data 61130.181818                       # average overall mshr miss latency
system.l2cache.overall_avg_mshr_miss_latency::.cpu.dcache.prefetcher 60919.698413                       # average overall mshr miss latency
system.l2cache.overall_avg_mshr_miss_latency::.l2cache.prefetcher 59768.038462                       # average overall mshr miss latency
system.l2cache.overall_avg_mshr_miss_latency::total 59441.128405                       # average overall mshr miss latency
system.l2cache.replacements                       785                       # number of replacements
system.l2cache.WritebackDirty_hits::.writebacks          382                       # number of WritebackDirty hits
system.l2cache.WritebackDirty_hits::total          382                       # number of WritebackDirty hits
system.l2cache.WritebackDirty_accesses::.writebacks          382                       # number of WritebackDirty accesses(hits+misses)
system.l2cache.WritebackDirty_accesses::total          382                       # number of WritebackDirty accesses(hits+misses)
system.l2cache.CleanEvict_mshr_misses::.writebacks           17                       # number of CleanEvict MSHR misses
system.l2cache.CleanEvict_mshr_misses::total           17                       # number of CleanEvict MSHR misses
system.l2cache.CleanEvict_mshr_miss_rate::.writebacks          inf                       # mshr miss rate for CleanEvict accesses
system.l2cache.CleanEvict_mshr_miss_rate::total          inf                       # mshr miss rate for CleanEvict accesses
system.l2cache.HardPFReq_mshr_misses::.l2cache.prefetcher           26                       # number of HardPFReq MSHR misses
system.l2cache.HardPFReq_mshr_misses::total           26                       # number of HardPFReq MSHR misses
system.l2cache.HardPFReq_mshr_miss_latency::.l2cache.prefetcher      1553969                       # number of HardPFReq MSHR miss cycles
system.l2cache.HardPFReq_mshr_miss_latency::total      1553969                       # number of HardPFReq MSHR miss cycles
system.l2cache.HardPFReq_mshr_miss_rate::.l2cache.prefetcher          inf                       # mshr miss rate for HardPFReq accesses
system.l2cache.HardPFReq_mshr_miss_rate::total          inf                       # mshr miss rate for HardPFReq accesses
system.l2cache.HardPFReq_avg_mshr_miss_latency::.l2cache.prefetcher 59768.038462                       # average HardPFReq mshr miss latency
system.l2cache.HardPFReq_avg_mshr_miss_latency::total 59768.038462                       # average HardPFReq mshr miss latency
system.l2cache.UpgradeReq_hits::.cpu.data            1                       # number of UpgradeReq hits
system.l2cache.UpgradeReq_hits::total               1                       # number of UpgradeReq hits
system.l2cache.UpgradeReq_accesses::.cpu.data            1                       # number of UpgradeReq accesses(hits+misses)
system.l2cache.UpgradeReq_accesses::total            1                       # number of UpgradeReq accesses(hits+misses)
system.l2cache.ReadExReq_hits::.cpu.data           60                       # number of ReadExReq hits
system.l2cache.ReadExReq_hits::total               60                       # number of ReadExReq hits
system.l2cache.ReadExReq_misses::.cpu.data          112                       # number of ReadExReq misses
system.l2cache.ReadExReq_misses::total            112                       # number of ReadExReq misses
system.l2cache.ReadExReq_miss_latency::.cpu.data      7500000                       # number of ReadExReq miss cycles
system.l2cache.ReadExReq_miss_latency::total      7500000                       # number of ReadExReq miss cycles
system.l2cache.ReadExReq_accesses::.cpu.data          172                       # number of ReadExReq accesses(hits+misses)
system.l2cache.ReadExReq_accesses::total          172                       # number of ReadExReq accesses(hits+misses)
system.l2cache.ReadExReq_miss_rate::.cpu.data     0.651163                       # miss rate for ReadExReq accesses
system.l2cache.ReadExReq_miss_rate::total     0.651163                       # miss rate for ReadExReq accesses
system.l2cache.ReadExReq_avg_miss_latency::.cpu.data 66964.285714                       # average ReadExReq miss latency
system.l2cache.ReadExReq_avg_miss_latency::total 66964.285714                       # average ReadExReq miss latency
system.l2cache.ReadExReq_mshr_misses::.cpu.data          112                       # number of ReadExReq MSHR misses
system.l2cache.ReadExReq_mshr_misses::total          112                       # number of ReadExReq MSHR misses
system.l2cache.ReadExReq_mshr_miss_latency::.cpu.data      6604000                       # number of ReadExReq MSHR miss cycles
system.l2cache.ReadExReq_mshr_miss_latency::total      6604000                       # number of ReadExReq MSHR miss cycles
system.l2cache.ReadExReq_mshr_miss_rate::.cpu.data     0.651163                       # mshr miss rate for ReadExReq accesses
system.l2cache.ReadExReq_mshr_miss_rate::total     0.651163                       # mshr miss rate for ReadExReq accesses
system.l2cache.ReadExReq_avg_mshr_miss_latency::.cpu.data 58964.285714                       # average ReadExReq mshr miss latency
system.l2cache.ReadExReq_avg_mshr_miss_latency::total 58964.285714                       # average ReadExReq mshr miss latency
system.l2cache.ReadSharedReq_hits::.cpu.inst          623                       # number of ReadSharedReq hits
system.l2cache.ReadSharedReq_hits::.cpu.data          254                       # number of ReadSharedReq hits
system.l2cache.ReadSharedReq_hits::.cpu.dcache.prefetcher           46                       # number of ReadSharedReq hits
system.l2cache.ReadSharedReq_hits::total          923                       # number of ReadSharedReq hits
system.l2cache.ReadSharedReq_misses::.cpu.inst          407                       # number of ReadSharedReq misses
system.l2cache.ReadSharedReq_misses::.cpu.data          164                       # number of ReadSharedReq misses
system.l2cache.ReadSharedReq_misses::.cpu.dcache.prefetcher           65                       # number of ReadSharedReq misses
system.l2cache.ReadSharedReq_misses::total          636                       # number of ReadSharedReq misses
system.l2cache.ReadSharedReq_miss_latency::.cpu.inst     26874400                       # number of ReadSharedReq miss cycles
system.l2cache.ReadSharedReq_miss_latency::.cpu.data     11567200                       # number of ReadSharedReq miss cycles
system.l2cache.ReadSharedReq_miss_latency::.cpu.dcache.prefetcher      4404339                       # number of ReadSharedReq miss cycles
system.l2cache.ReadSharedReq_miss_latency::total     42845939                       # number of ReadSharedReq miss cycles
system.l2cache.ReadSharedReq_accesses::.cpu.inst         1030                       # number of ReadSharedReq accesses(hits+misses)
system.l2cache.ReadSharedReq_accesses::.cpu.data          418                       # number of ReadSharedReq accesses(hits+misses)
system.l2cache.ReadSharedReq_accesses::.cpu.dcache.prefetcher          111                       # number of ReadSharedReq accesses(hits+misses)
system.l2cache.ReadSharedReq_accesses::total         1559                       # number of ReadSharedReq accesses(hits+misses)
system.l2cache.ReadSharedReq_miss_rate::.cpu.inst     0.395146                       # miss rate for ReadSharedReq accesses
system.l2cache.ReadSharedReq_miss_rate::.cpu.data     0.392344                       # miss rate for ReadSharedReq accesses
system.l2cache.ReadSharedReq_miss_rate::.cpu.dcache.prefetcher     0.585586                       # miss rate for ReadSharedReq accesses
system.l2cache.ReadSharedReq_miss_rate::total     0.407954                       # miss rate for ReadSharedReq accesses
system.l2cache.ReadSharedReq_avg_miss_latency::.cpu.inst 66030.466830                       # average ReadSharedReq miss latency
system.l2cache.ReadSharedReq_avg_miss_latency::.cpu.data 70531.707317                       # average ReadSharedReq miss latency
system.l2cache.ReadSharedReq_avg_miss_latency::.cpu.dcache.prefetcher 67759.061538                       # average ReadSharedReq miss latency
system.l2cache.ReadSharedReq_avg_miss_latency::total 67367.828616                       # average ReadSharedReq miss latency
system.l2cache.ReadSharedReq_mshr_hits::.cpu.data            1                       # number of ReadSharedReq MSHR hits
system.l2cache.ReadSharedReq_mshr_hits::.cpu.dcache.prefetcher            2                       # number of ReadSharedReq MSHR hits
system.l2cache.ReadSharedReq_mshr_hits::total            3                       # number of ReadSharedReq MSHR hits
system.l2cache.ReadSharedReq_mshr_misses::.cpu.inst          407                       # number of ReadSharedReq MSHR misses
system.l2cache.ReadSharedReq_mshr_misses::.cpu.data          163                       # number of ReadSharedReq MSHR misses
system.l2cache.ReadSharedReq_mshr_misses::.cpu.dcache.prefetcher           63                       # number of ReadSharedReq MSHR misses
system.l2cache.ReadSharedReq_mshr_misses::total          633                       # number of ReadSharedReq MSHR misses
system.l2cache.ReadSharedReq_mshr_miss_latency::.cpu.inst     23626400                       # number of ReadSharedReq MSHR miss cycles
system.l2cache.ReadSharedReq_mshr_miss_latency::.cpu.data     10206800                       # number of ReadSharedReq MSHR miss cycles
system.l2cache.ReadSharedReq_mshr_miss_latency::.cpu.dcache.prefetcher      3837941                       # number of ReadSharedReq MSHR miss cycles
system.l2cache.ReadSharedReq_mshr_miss_latency::total     37671141                       # number of ReadSharedReq MSHR miss cycles
system.l2cache.ReadSharedReq_mshr_miss_rate::.cpu.inst     0.395146                       # mshr miss rate for ReadSharedReq accesses
system.l2cache.ReadSharedReq_mshr_miss_rate::.cpu.data     0.389952                       # mshr miss rate for ReadSharedReq accesses
system.l2cache.ReadSharedReq_mshr_miss_rate::.cpu.dcache.prefetcher     0.567568                       # mshr miss rate for ReadSharedReq accesses
system.l2cache.ReadSharedReq_mshr_miss_rate::total     0.406030                       # mshr miss rate for ReadSharedReq accesses
system.l2cache.ReadSharedReq_avg_mshr_miss_latency::.cpu.inst 58050.122850                       # average ReadSharedReq mshr miss latency
system.l2cache.ReadSharedReq_avg_mshr_miss_latency::.cpu.data 62618.404908                       # average ReadSharedReq mshr miss latency
system.l2cache.ReadSharedReq_avg_mshr_miss_latency::.cpu.dcache.prefetcher 60919.698413                       # average ReadSharedReq mshr miss latency
system.l2cache.ReadSharedReq_avg_mshr_miss_latency::total 59512.071090                       # average ReadSharedReq mshr miss latency
system.l2cache.prefetcher.pwrStateResidencyTicks::UNDEFINED    695224800                       # Cumulative time (in ticks) in various power states
system.l2cache.tags.pwrStateResidencyTicks::UNDEFINED    695224800                       # Cumulative time (in ticks) in various power states
system.l2cache.tags.tagsinuse                    4096                       # Cycle average of tags in use
system.l2cache.tags.total_refs                  15561                       # Total number of references to valid blocks.
system.l2cache.tags.sampled_refs                 4881                       # Sample count of references to valid blocks.
system.l2cache.tags.avg_refs                 3.188076                       # Average number of references to valid blocks.
system.l2cache.tags.warmup_cycle                    0                       # Cycle when the warmup percentage was hit.
system.l2cache.tags.occ_blocks::.writebacks    44.601586                       # Average occupied blocks per requestor
system.l2cache.tags.occ_blocks::.cpu.inst  1080.750773                       # Average occupied blocks per requestor
system.l2cache.tags.occ_blocks::.cpu.data  1794.803737                       # Average occupied blocks per requestor
system.l2cache.tags.occ_blocks::.cpu.dcache.prefetcher   962.069186                       # Average occupied blocks per requestor
system.l2cache.tags.occ_blocks::.l2cache.prefetcher   213.774719                       # Average occupied blocks per requestor
system.l2cache.tags.occ_percent::.writebacks     0.010889                       # Average percentage of cache occupancy
system.l2cache.tags.occ_percent::.cpu.inst     0.263855                       # Average percentage of cache occupancy
system.l2cache.tags.occ_percent::.cpu.data     0.438185                       # Average percentage of cache occupancy
system.l2cache.tags.occ_percent::.cpu.dcache.prefetcher     0.234880                       # Average percentage of cache occupancy
system.l2cache.tags.occ_percent::.l2cache.prefetcher     0.052191                       # Average percentage of cache occupancy
system.l2cache.tags.occ_percent::total       1.000000                       # Average percentage of cache occupancy
system.l2cache.tags.occ_task_id_blocks::1022         1096                       # Occupied blocks per task id
system.l2cache.tags.occ_task_id_blocks::1024         3000                       # Occupied blocks per task id
system.l2cache.tags.age_task_id_blocks_1022::0           15                       # Occupied blocks per task id
system.l2cache.tags.age_task_id_blocks_1022::1            4                       # Occupied blocks per task id
system.l2cache.tags.age_task_id_blocks_1022::2           74                       # Occupied blocks per task id
system.l2cache.tags.age_task_id_blocks_1022::4         1003                       # Occupied blocks per task id
system.l2cache.tags.age_task_id_blocks_1024::0          172                       # Occupied blocks per task id
system.l2cache.tags.age_task_id_blocks_1024::1           31                       # Occupied blocks per task id
system.l2cache.tags.age_task_id_blocks_1024::2          488                       # Occupied blocks per task id
system.l2cache.tags.age_task_id_blocks_1024::3            1                       # Occupied blocks per task id
system.l2cache.tags.age_task_id_blocks_1024::4         2308                       # Occupied blocks per task id
system.l2cache.tags.occ_task_id_percent::1022     0.267578                       # Percentage of cache occupancy per task id
system.l2cache.tags.occ_task_id_percent::1024     0.732422                       # Percentage of cache occupancy per task id
system.l2cache.tags.tag_accesses                28417                       # Number of tag accesses
system.l2cache.tags.data_accesses               28417                       # Number of data accesses
system.mem_ctrl.pwrStateResidencyTicks::UNDEFINED    695224800                       # Cumulative time (in ticks) in various power states
system.mem_ctrl.bytes_read::.cpu.inst           25984                       # Number of bytes read from this memory
system.mem_ctrl.bytes_read::.cpu.data           17600                       # Number of bytes read from this memory
system.mem_ctrl.bytes_read::.cpu.dcache.prefetcher         4032                       # Number of bytes read from this memory
system.mem_ctrl.bytes_read::.l2cache.prefetcher         1664                       # Number of bytes read from this memory
system.mem_ctrl.bytes_read::total               49280                       # Number of bytes read from this memory
system.mem_ctrl.bytes_inst_read::.cpu.inst        25984                       # Number of instructions bytes read from this memory
system.mem_ctrl.bytes_inst_read::total          25984                       # Number of instructions bytes read from this memory
system.mem_ctrl.bytes_written::.writebacks         3776                       # Number of bytes written to this memory
system.mem_ctrl.bytes_written::total             3776                       # Number of bytes written to this memory
system.mem_ctrl.num_reads::.cpu.inst              406                       # Number of read requests responded to by this memory
system.mem_ctrl.num_reads::.cpu.data              275                       # Number of read requests responded to by this memory
system.mem_ctrl.num_reads::.cpu.dcache.prefetcher           63                       # Number of read requests responded to by this memory
system.mem_ctrl.num_reads::.l2cache.prefetcher           26                       # Number of read requests responded to by this memory
system.mem_ctrl.num_reads::total                  770                       # Number of read requests responded to by this memory
system.mem_ctrl.num_writes::.writebacks            59                       # Number of write requests responded to by this memory
system.mem_ctrl.num_writes::total                  59                       # Number of write requests responded to by this memory
system.mem_ctrl.bw_read::.cpu.inst           37374961                       # Total read bandwidth from this memory (bytes/s)
system.mem_ctrl.bw_read::.cpu.data           25315553                       # Total read bandwidth from this memory (bytes/s)
system.mem_ctrl.bw_read::.cpu.dcache.prefetcher      5799563                       # Total read bandwidth from this memory (bytes/s)
system.mem_ctrl.bw_read::.l2cache.prefetcher      2393470                       # Total read bandwidth from this memory (bytes/s)
system.mem_ctrl.bw_read::total               70883547                       # Total read bandwidth from this memory (bytes/s)
system.mem_ctrl.bw_inst_read::.cpu.inst      37374961                       # Instruction read bandwidth from this memory (bytes/s)
system.mem_ctrl.bw_inst_read::total          37374961                       # Instruction read bandwidth from this memory (bytes/s)
system.mem_ctrl.bw_write::.writebacks         5431337                       # Write bandwidth from this memory (bytes/s)
system.mem_ctrl.bw_write::total               5431337                       # Write bandwidth from this memory (bytes/s)
system.mem_ctrl.bw_total::.writebacks         5431337                       # Total bandwidth to/from this memory (bytes/s)
system.mem_ctrl.bw_total::.cpu.inst          37374961                       # Total bandwidth to/from this memory (bytes/s)
system.mem_ctrl.bw_total::.cpu.data          25315553                       # Total bandwidth to/from this memory (bytes/s)
system.mem_ctrl.bw_total::.cpu.dcache.prefetcher      5799563                       # Total bandwidth to/from this memory (bytes/s)
system.mem_ctrl.bw_total::.l2cache.prefetcher      2393470                       # Total bandwidth to/from this memory (bytes/s)
system.mem_ctrl.bw_total::total              76314884                       # Total bandwidth to/from this memory (bytes/s)

---------- End Simulation Statistics   ----------
