
---------- Begin Simulation Statistics ----------
final_tick                                 1272290400                       # Number of ticks from beginning of simulation (restored from checkpoints and never reset)
host_inst_rate                                 176797                       # Simulator instruction rate (inst/s)
host_mem_usage                                4404956                       # Number of bytes of host memory used
host_op_rate                                   307483                       # Simulator op (including micro ops) rate (op/s)
host_seconds                                    13.24                       # Real time elapsed on the host
host_tick_rate                               96075027                       # Simulator tick rate (ticks/s)
sim_freq                                 1000000000000                       # Frequency of simulated ticks
sim_insts                                     2341238                       # Number of instructions simulated
sim_ops                                       4071898                       # Number of ops (including micro ops) simulated
sim_seconds                                  0.001272                       # Number of seconds simulated
sim_ticks                                  1272290400                       # Number of ticks simulated
system.cpu.branchPred.BTBCorrect                    0                       # Number of correct BTB predictions (this stat may not work properly.
system.cpu.branchPred.BTBHitPct              0.000000                       # BTB Hit Percentage
system.cpu.branchPred.BTBHits                       0                       # Number of BTB hits
system.cpu.branchPred.BTBLookups               487218                       # Number of BTB lookups
system.cpu.branchPred.RASInCorrect                  7                       # Number of incorrect RAS predictions.
system.cpu.branchPred.condIncorrect             23668                       # Number of conditional branches incorrect
system.cpu.branchPred.condPredicted            513329                       # Number of conditional branches predicted
system.cpu.branchPred.indirectHits             275332                       # Number of indirect target hits.
system.cpu.branchPred.indirectLookups          487218                       # Number of indirect predictor lookups.
system.cpu.branchPred.indirectMisses           211886                       # Number of indirect misses.
system.cpu.branchPred.lookups                  549968                       # Number of BP lookups
system.cpu.branchPred.usedRAS                   16178                       # Number of times the RAS was used to get a target.
system.cpu.branchPredindirectMispredicted        11872                       # Number of mispredicted indirect branches.
system.cpu.cc_regfile_reads                   2621232                       # number of cc regfile reads
system.cpu.cc_regfile_writes                  2100336                       # number of cc regfile writes
system.cpu.commit.amos                              0                       # Number of atomic instructions committed
system.cpu.commit.branchMispredicts             23740                       # The number of times a branch was mispredicted
system.cpu.commit.branches                     386536                       # Number of branches committed
system.cpu.commit.bw_lim_events                655156                       # number cycles where commit BW limit reached
system.cpu.commit.commitNonSpecStalls            1086                       # The number of times commit has been forced to stall to communicate backwards
system.cpu.commit.commitSquashedInsts         1013989                       # The number of squashed insts skipped by commit
system.cpu.commit.committedInsts              2341238                       # Number of instructions committed
system.cpu.commit.committedOps                4071898                       # Number of ops (including micro ops) committed
system.cpu.commit.committed_per_cycle::samples      2747232                       # Number of insts commited each cycle
system.cpu.commit.committed_per_cycle::mean     1.482182                       # Number of insts commited each cycle
system.cpu.commit.committed_per_cycle::stdev     1.705279                       # Number of insts commited each cycle
system.cpu.commit.committed_per_cycle::underflows            0      0.00%      0.00% # Number of insts commited each cycle
system.cpu.commit.committed_per_cycle::0      1395073     50.78%     50.78% # Number of insts commited each cycle
system.cpu.commit.committed_per_cycle::1       233664      8.51%     59.29% # Number of insts commited each cycle
system.cpu.commit.committed_per_cycle::2       172407      6.28%     65.56% # Number of insts commited each cycle
system.cpu.commit.committed_per_cycle::3       290932     10.59%     76.15% # Number of insts commited each cycle
system.cpu.commit.committed_per_cycle::4       655156     23.85%    100.00% # Number of insts commited each cycle
system.cpu.commit.committed_per_cycle::overflows            0      0.00%    100.00% # Number of insts commited each cycle
system.cpu.commit.committed_per_cycle::min_value            0                       # Number of insts commited each cycle
system.cpu.commit.committed_per_cycle::max_value            4                       # Number of insts commited each cycle
system.cpu.commit.committed_per_cycle::total      2747232                       # Number of insts commited each cycle
system.cpu.commit.fp_insts                     104712                       # Number of committed floating point instructions.
system.cpu.commit.function_calls                11091                       # Number of function calls committed.
system.cpu.commit.int_insts                   4010834                       # Number of committed integer instructions.
system.cpu.commit.loads                        603964                       # Number of loads committed
system.cpu.commit.membars                           1                       # Number of memory barriers committed
system.cpu.commit.op_class_0::No_OpClass        20455      0.50%      0.50% # Class of committed instruction
system.cpu.commit.op_class_0::IntAlu          3144936     77.24%     77.74% # Class of committed instruction
system.cpu.commit.op_class_0::IntMult              35      0.00%     77.74% # Class of committed instruction
system.cpu.commit.op_class_0::IntDiv            36296      0.89%     78.63% # Class of committed instruction
system.cpu.commit.op_class_0::FloatAdd           3019      0.07%     78.70% # Class of committed instruction
system.cpu.commit.op_class_0::FloatCmp              0      0.00%     78.70% # Class of committed instruction
system.cpu.commit.op_class_0::FloatCvt           1296      0.03%     78.74% # Class of committed instruction
system.cpu.commit.op_class_0::FloatMult             0      0.00%     78.74% # Class of committed instruction
system.cpu.commit.op_class_0::FloatMultAcc            0      0.00%     78.74% # Class of committed instruction
system.cpu.commit.op_class_0::FloatDiv              0      0.00%     78.74% # Class of committed instruction
system.cpu.commit.op_class_0::FloatMisc             0      0.00%     78.74% # Class of committed instruction
system.cpu.commit.op_class_0::FloatSqrt             0      0.00%     78.74% # Class of committed instruction
system.cpu.commit.op_class_0::SimdAdd            6308      0.15%     78.89% # Class of committed instruction
system.cpu.commit.op_class_0::SimdAddAcc            0      0.00%     78.89% # Class of committed instruction
system.cpu.commit.op_class_0::SimdAlu           12355      0.30%     79.19% # Class of committed instruction
system.cpu.commit.op_class_0::SimdCmp            1506      0.04%     79.23% # Class of committed instruction
system.cpu.commit.op_class_0::SimdCvt           14408      0.35%     79.58% # Class of committed instruction
system.cpu.commit.op_class_0::SimdMisc           9413      0.23%     79.82% # Class of committed instruction
system.cpu.commit.op_class_0::SimdMult              0      0.00%     79.82% # Class of committed instruction
system.cpu.commit.op_class_0::SimdMultAcc            0      0.00%     79.82% # Class of committed instruction
system.cpu.commit.op_class_0::SimdShift          1233      0.03%     79.85% # Class of committed instruction
system.cpu.commit.op_class_0::SimdShiftAcc            0      0.00%     79.85% # Class of committed instruction
system.cpu.commit.op_class_0::SimdDiv               0      0.00%     79.85% # Class of committed instruction
system.cpu.commit.op_class_0::SimdSqrt              0      0.00%     79.85% # Class of committed instruction
system.cpu.commit.op_class_0::SimdFloatAdd            0      0.00%     79.85% # Class of committed instruction
system.cpu.commit.op_class_0::SimdFloatAlu            0      0.00%     79.85% # Class of committed instruction
system.cpu.commit.op_class_0::SimdFloatCmp            0      0.00%     79.85% # Class of committed instruction
system.cpu.commit.op_class_0::SimdFloatCvt            0      0.00%     79.85% # Class of committed instruction
system.cpu.commit.op_class_0::SimdFloatDiv            0      0.00%     79.85% # Class of committed instruction
system.cpu.commit.op_class_0::SimdFloatMisc            0      0.00%     79.85% # Class of committed instruction
system.cpu.commit.op_class_0::SimdFloatMult            0      0.00%     79.85% # Class of committed instruction
system.cpu.commit.op_class_0::SimdFloatMultAcc            0      0.00%     79.85% # Class of committed instruction
system.cpu.commit.op_class_0::SimdFloatSqrt            0      0.00%     79.85% # Class of committed instruction
system.cpu.commit.op_class_0::SimdReduceAdd            0      0.00%     79.85% # Class of committed instruction
system.cpu.commit.op_class_0::SimdReduceAlu            0      0.00%     79.85% # Class of committed instruction
system.cpu.commit.op_class_0::SimdReduceCmp            0      0.00%     79.85% # Class of committed instruction
system.cpu.commit.op_class_0::SimdFloatReduceAdd            0      0.00%     79.85% # Class of committed instruction
system.cpu.commit.op_class_0::SimdFloatReduceCmp            0      0.00%     79.85% # Class of committed instruction
system.cpu.commit.op_class_0::SimdAes               0      0.00%     79.85% # Class of committed instruction
system.cpu.commit.op_class_0::SimdAesMix            0      0.00%     79.85% # Class of committed instruction
system.cpu.commit.op_class_0::SimdSha1Hash            0      0.00%     79.85% # Class of committed instruction
system.cpu.commit.op_class_0::SimdSha1Hash2            0      0.00%     79.85% # Class of committed instruction
system.cpu.commit.op_class_0::SimdSha256Hash            0      0.00%     79.85% # Class of committed instruction
system.cpu.commit.op_class_0::SimdSha256Hash2            0      0.00%     79.85% # Class of committed instruction
system.cpu.commit.op_class_0::SimdShaSigma2            0      0.00%     79.85% # Class of committed instruction
system.cpu.commit.op_class_0::SimdShaSigma3            0      0.00%     79.85% # Class of committed instruction
system.cpu.commit.op_class_0::SimdPredAlu            0      0.00%     79.85% # Class of committed instruction
system.cpu.commit.op_class_0::MemRead          573020     14.07%     93.92% # Class of committed instruction
system.cpu.commit.op_class_0::MemWrite         193385      4.75%     98.67% # Class of committed instruction
system.cpu.commit.op_class_0::FloatMemRead        30944      0.76%     99.43% # Class of committed instruction
system.cpu.commit.op_class_0::FloatMemWrite        23289      0.57%    100.00% # Class of committed instruction
system.cpu.commit.op_class_0::IprAccess             0      0.00%    100.00% # Class of committed instruction
system.cpu.commit.op_class_0::InstPrefetch            0      0.00%    100.00% # Class of committed instruction
system.cpu.commit.op_class_0::total           4071898                       # Class of committed instruction
system.cpu.commit.refs                         820638                       # Number of memory references committed
system.cpu.commit.swp_count                         0                       # Number of s/w prefetches committed
system.cpu.commit.vec_insts                         0                       # Number of committed Vector instructions.
system.cpu.committedInsts                     2341238                       # Number of Instructions Simulated
system.cpu.committedOps                       4071898                       # Number of Ops (including micro ops) Simulated
system.cpu.cpi                               1.358566                       # CPI: Cycles Per Instruction
system.cpu.cpi_total                         1.358566                       # CPI: Total CPI of All Threads
system.cpu.dcache.prefetcher.num_hwpf_issued         8347                       # number of hwpf issued
system.cpu.dcache.prefetcher.pfBufferHit        34276                       # number of redundant prefetches already in prefetch queue
system.cpu.dcache.prefetcher.pfIdentified        49557                       # number of prefetch candidates identified
system.cpu.dcache.prefetcher.pfInCache              0                       # number of redundant prefetches already in cache/mshr dropped
system.cpu.dcache.prefetcher.pfRemovedFull            0                       # number of prefetches dropped due to prefetch queue size
system.cpu.dcache.prefetcher.pfSpanPage          4395                       # number of prefetches that crossed the page
system.cpu.decode.BlockedCycles               1229591                       # Number of cycles decode is blocked
system.cpu.decode.DecodedInsts                5399101                       # Number of instructions handled by decode
system.cpu.decode.IdleCycles                   349897                       # Number of cycles decode is idle
system.cpu.decode.RunCycles                   1296889                       # Number of cycles decode is running
system.cpu.decode.SquashCycles                  26215                       # Number of cycles decode is squashing
system.cpu.decode.UnblockCycles                119402                       # Number of cycles decode is unblocking
system.cpu.dtb.rdAccesses                      714693                       # TLB accesses on read requests
system.cpu.dtb.rdMisses                          2091                       # TLB misses on read requests
system.cpu.dtb.wrAccesses                      267626                       # TLB accesses on write requests
system.cpu.dtb.wrMisses                           175                       # TLB misses on write requests
system.cpu.fetch.Branches                      549968                       # Number of branches that fetch encountered
system.cpu.fetch.CacheLines                    316203                       # Number of cache lines fetched
system.cpu.fetch.Cycles                       2578049                       # Number of cycles fetch has run and was not squashing or blocked
system.cpu.fetch.IcacheSquashes                  5323                       # Number of outstanding Icache misses that were squashed
system.cpu.fetch.IcacheWaitRetryStallCycles           13                       # Number of stall cycles due to full MSHR
system.cpu.fetch.Insts                        3221775                       # Number of instructions fetch has processed
system.cpu.fetch.MiscStallCycles                   98                       # Number of cycles fetch has spent waiting on interrupts, or bad addresses, or out of MSHRs
system.cpu.fetch.PendingQuiesceStallCycles           16                       # Number of stall cycles due to pending quiesce instructions
system.cpu.fetch.PendingTrapStallCycles           505                       # Number of stall cycles due to pending traps
system.cpu.fetch.SquashCycles                   52430                       # Number of cycles fetch has spent squashing
system.cpu.fetch.branchRate                  0.172906                       # Number of branch fetches per cycle
system.cpu.fetch.icacheStallCycles             417098                       # Number of cycles fetch is stalled on an Icache miss
system.cpu.fetch.predictedBranches             291510                       # Number of branches that fetch has predicted taken
system.cpu.fetch.rate                        1.012905                       # Number of inst fetches per cycle
system.cpu.fetch.rateDist::samples            3021994                       # Number of instructions fetched each cycle (Total)
system.cpu.fetch.rateDist::mean              1.883497                       # Number of instructions fetched each cycle (Total)
system.cpu.fetch.rateDist::stdev             1.917379                       # Number of instructions fetched each cycle (Total)
system.cpu.fetch.rateDist::underflows               0      0.00%      0.00% # Number of instructions fetched each cycle (Total)
system.cpu.fetch.rateDist::0                  1461029     48.35%     48.35% # Number of instructions fetched each cycle (Total)
system.cpu.fetch.rateDist::1                    85367      2.82%     51.17% # Number of instructions fetched each cycle (Total)
system.cpu.fetch.rateDist::2                   103274      3.42%     54.59% # Number of instructions fetched each cycle (Total)
system.cpu.fetch.rateDist::3                    89294      2.95%     57.54% # Number of instructions fetched each cycle (Total)
system.cpu.fetch.rateDist::4                  1283030     42.46%    100.00% # Number of instructions fetched each cycle (Total)
system.cpu.fetch.rateDist::overflows                0      0.00%    100.00% # Number of instructions fetched each cycle (Total)
system.cpu.fetch.rateDist::min_value                0                       # Number of instructions fetched each cycle (Total)
system.cpu.fetch.rateDist::max_value                4                       # Number of instructions fetched each cycle (Total)
system.cpu.fetch.rateDist::total              3021994                       # Number of instructions fetched each cycle (Total)
system.cpu.fp_regfile_reads                    176282                       # number of floating regfile reads
system.cpu.fp_regfile_writes                    96540                       # number of floating regfile writes
system.cpu.fuPool.fu_ticks_busy::IntALU(0)    245047600                       # Total ticks fu was busy
system.cpu.fuPool.fu_ticks_busy::IntALU(1)    245047200                       # Total ticks fu was busy
system.cpu.fuPool.fu_ticks_busy::IntALU(2)    245047200                       # Total ticks fu was busy
system.cpu.fuPool.fu_ticks_busy::IntALU(3)    245047200                       # Total ticks fu was busy
system.cpu.fuPool.fu_ticks_busy::IntALU(4)    245047200                       # Total ticks fu was busy
system.cpu.fuPool.fu_ticks_busy::IntALU(5)    245047200                       # Total ticks fu was busy
system.cpu.fuPool.fu_ticks_busy::IntMultDiv(0)      7974800                       # Total ticks fu was busy
system.cpu.fuPool.fu_ticks_busy::IntMultDiv(1)      7974400                       # Total ticks fu was busy
system.cpu.fuPool.fu_ticks_busy::FP_ALU(0)       589600                       # Total ticks fu was busy
system.cpu.fuPool.fu_ticks_busy::FP_ALU(1)       589200                       # Total ticks fu was busy
system.cpu.fuPool.fu_ticks_busy::FP_ALU(2)       589200                       # Total ticks fu was busy
system.cpu.fuPool.fu_ticks_busy::FP_ALU(3)       588800                       # Total ticks fu was busy
system.cpu.fuPool.fu_ticks_busy::FP_MultDiv(0)            0                       # Total ticks fu was busy
system.cpu.fuPool.fu_ticks_busy::FP_MultDiv(1)            0                       # Total ticks fu was busy
system.cpu.fuPool.fu_ticks_busy::SIMD_Unit(0)      5622800                       # Total ticks fu was busy
system.cpu.fuPool.fu_ticks_busy::SIMD_Unit(1)      5547200                       # Total ticks fu was busy
system.cpu.fuPool.fu_ticks_busy::SIMD_Unit(2)      5521600                       # Total ticks fu was busy
system.cpu.fuPool.fu_ticks_busy::SIMD_Unit(3)      5591600                       # Total ticks fu was busy
system.cpu.fuPool.fu_ticks_busy::PredALU(0)            0                       # Total ticks fu was busy
system.cpu.fuPool.fu_ticks_busy::RdWrPort(0)     99747200                       # Total ticks fu was busy
system.cpu.fuPool.fu_ticks_busy::RdWrPort(1)     99733600                       # Total ticks fu was busy
system.cpu.fuPool.fu_ticks_busy::RdWrPort(2)     99727200                       # Total ticks fu was busy
system.cpu.fuPool.fu_ticks_busy::RdWrPort(3)     99749200                       # Total ticks fu was busy
system.cpu.fuPool.fu_ticks_busy::IprPort(0)            0                       # Total ticks fu was busy
system.cpu.fuPool.fu_ticks_busy::total     1909830000                       # Total ticks fu was busy
system.cpu.icache.prefetcher.num_hwpf_issued            0                       # number of hwpf issued
system.cpu.icache.prefetcher.pfBufferHit            0                       # number of redundant prefetches already in prefetch queue
system.cpu.icache.prefetcher.pfIdentified            0                       # number of prefetch candidates identified
system.cpu.icache.prefetcher.pfInCache              0                       # number of redundant prefetches already in cache/mshr dropped
system.cpu.icache.prefetcher.pfRemovedFull            0                       # number of prefetches dropped due to prefetch queue size
system.cpu.icache.prefetcher.pfSpanPage             0                       # number of prefetches that crossed the page
system.cpu.idleCycles                          158733                       # Total number of cycles that the CPU has spent unscheduled due to idling
system.cpu.iew.branchMispredicts                28436                       # Number of branch mispredicts detected at execute
system.cpu.iew.exec_branches                   432199                       # Number of branches executed
system.cpu.iew.exec_nop                             0                       # number of nop insts executed
system.cpu.iew.exec_rate                     1.500852                       # Inst execution rate
system.cpu.iew.exec_refs                       984104                       # number of memory reference insts executed
system.cpu.iew.exec_stores                     267618                       # Number of stores executed
system.cpu.iew.exec_swp                             0                       # number of swp insts executed
system.cpu.iew.iewBlockCycles                  746723                       # Number of cycles IEW is blocking
system.cpu.iew.iewDispLoadInsts                748997                       # Number of dispatched load instructions
system.cpu.iew.iewDispNonSpecInsts                981                       # Number of dispatched non-speculative instructions
system.cpu.iew.iewDispSquashedInsts               460                       # Number of squashed instructions skipped by dispatch
system.cpu.iew.iewDispStoreInsts               315017                       # Number of dispatched store instructions
system.cpu.iew.iewDispatchedInsts             5171899                       # Number of instructions dispatched to IQ
system.cpu.iew.iewExecLoadInsts                716486                       # Number of load instructions executed
system.cpu.iew.iewExecSquashedInsts             38008                       # Number of squashed instructions skipped in execute
system.cpu.iew.iewExecutedInsts               4773802                       # Number of executed instructions
system.cpu.iew.iewIQFullEvents                   3457                       # Number of times the IQ has become full, causing a stall
system.cpu.iew.iewIdleCycles                        0                       # Number of cycles IEW is idle
system.cpu.iew.iewLSQFullEvents                 22842                       # Number of times the LSQ has become full, causing a stall
system.cpu.iew.iewSquashCycles                  26215                       # Number of cycles IEW is squashing
system.cpu.iew.iewUnblockCycles                 29036                       # Number of cycles IEW is unblocking
system.cpu.iew.lsq.thread0.blockedLoads             0                       # Number of blocked loads due to partial load-store forwarding
system.cpu.iew.lsq.thread0.cacheBlocked           631                       # Number of times an access to memory failed due to the cache being blocked
system.cpu.iew.lsq.thread0.forwLoads            40375                       # Number of loads that had data forwarded from stores
system.cpu.iew.lsq.thread0.ignoredResponses          249                       # Number of memory responses ignored because the instruction is squashed
system.cpu.iew.lsq.thread0.invAddrLoads             0                       # Number of loads ignored due to an invalid address
system.cpu.iew.lsq.thread0.invAddrSwpfs             0                       # Number of software prefetches ignored due to an invalid address
system.cpu.iew.lsq.thread0.memOrderViolation           93                       # Number of memory ordering violations
system.cpu.iew.lsq.thread0.rescheduledLoads            0                       # Number of loads that were rescheduled
system.cpu.iew.lsq.thread0.squashedLoads       145031                       # Number of loads squashed
system.cpu.iew.lsq.thread0.squashedStores        98342                       # Number of stores squashed
system.cpu.iew.memOrderViolationEvents             93                       # Number of memory order violations
system.cpu.iew.predictedNotTakenIncorrect        20170                       # Number of branches that were predicted not taken incorrectly
system.cpu.iew.predictedTakenIncorrect           8266                       # Number of branches that were predicted taken incorrectly
system.cpu.iew.wb_consumers                   6396107                       # num instructions consuming a value
system.cpu.iew.wb_count                       4739627                       # cumulative count of insts written-back
system.cpu.iew.wb_fanout                     0.581492                       # average fanout of values written-back
system.cpu.iew.wb_producers                   3719287                       # num instructions producing a value
system.cpu.iew.wb_rate                       1.490108                       # insts written-back per cycle
system.cpu.iew.wb_sent                        4758074                       # cumulative count of insts sent to commit
system.cpu.int_regfile_reads                  7413560                       # number of integer regfile reads
system.cpu.int_regfile_writes                 4014862                       # number of integer regfile writes
system.cpu.ipc                               0.736070                       # IPC: Instructions Per Cycle
system.cpu.ipc_total                         0.736070                       # IPC: Total IPC of All Threads
system.cpu.iq.FU_type_0::No_OpClass             37235      0.77%      0.77% # Type of FU issued
system.cpu.iq.FU_type_0::IntAlu               3675710     76.39%     77.16% # Type of FU issued
system.cpu.iq.FU_type_0::IntMult                   61      0.00%     77.16% # Type of FU issued
system.cpu.iq.FU_type_0::IntDiv                 39812      0.83%     77.99% # Type of FU issued
system.cpu.iq.FU_type_0::FloatAdd                4581      0.10%     78.09% # Type of FU issued
system.cpu.iq.FU_type_0::FloatCmp                   0      0.00%     78.09% # Type of FU issued
system.cpu.iq.FU_type_0::FloatCvt                1311      0.03%     78.11% # Type of FU issued
system.cpu.iq.FU_type_0::FloatMult                  0      0.00%     78.11% # Type of FU issued
system.cpu.iq.FU_type_0::FloatMultAcc               0      0.00%     78.11% # Type of FU issued
system.cpu.iq.FU_type_0::FloatDiv                   0      0.00%     78.11% # Type of FU issued
system.cpu.iq.FU_type_0::FloatMisc                  0      0.00%     78.11% # Type of FU issued
system.cpu.iq.FU_type_0::FloatSqrt                  0      0.00%     78.11% # Type of FU issued
system.cpu.iq.FU_type_0::SimdAdd                 6999      0.15%     78.26% # Type of FU issued
system.cpu.iq.FU_type_0::SimdAddAcc                 0      0.00%     78.26% # Type of FU issued
system.cpu.iq.FU_type_0::SimdAlu                16898      0.35%     78.61% # Type of FU issued
system.cpu.iq.FU_type_0::SimdCmp                 1825      0.04%     78.65% # Type of FU issued
system.cpu.iq.FU_type_0::SimdCvt                16983      0.35%     79.00% # Type of FU issued
system.cpu.iq.FU_type_0::SimdMisc               10697      0.22%     79.22% # Type of FU issued
system.cpu.iq.FU_type_0::SimdMult                   0      0.00%     79.22% # Type of FU issued
system.cpu.iq.FU_type_0::SimdMultAcc                0      0.00%     79.22% # Type of FU issued
system.cpu.iq.FU_type_0::SimdShift               2306      0.05%     79.27% # Type of FU issued
system.cpu.iq.FU_type_0::SimdShiftAcc               0      0.00%     79.27% # Type of FU issued
system.cpu.iq.FU_type_0::SimdDiv                    0      0.00%     79.27% # Type of FU issued
system.cpu.iq.FU_type_0::SimdSqrt                   0      0.00%     79.27% # Type of FU issued
system.cpu.iq.FU_type_0::SimdFloatAdd               0      0.00%     79.27% # Type of FU issued
system.cpu.iq.FU_type_0::SimdFloatAlu               0      0.00%     79.27% # Type of FU issued
system.cpu.iq.FU_type_0::SimdFloatCmp               0      0.00%     79.27% # Type of FU issued
system.cpu.iq.FU_type_0::SimdFloatCvt               0      0.00%     79.27% # Type of FU issued
system.cpu.iq.FU_type_0::SimdFloatDiv               0      0.00%     79.27% # Type of FU issued
system.cpu.iq.FU_type_0::SimdFloatMisc              0      0.00%     79.27% # Type of FU issued
system.cpu.iq.FU_type_0::SimdFloatMult              0      0.00%     79.27% # Type of FU issued
system.cpu.iq.FU_type_0::SimdFloatMultAcc            0      0.00%     79.27% # Type of FU issued
system.cpu.iq.FU_type_0::SimdFloatSqrt              0      0.00%     79.27% # Type of FU issued
system.cpu.iq.FU_type_0::SimdReduceAdd              0      0.00%     79.27% # Type of FU issued
system.cpu.iq.FU_type_0::SimdReduceAlu              0      0.00%     79.27% # Type of FU issued
system.cpu.iq.FU_type_0::SimdReduceCmp              0      0.00%     79.27% # Type of FU issued
system.cpu.iq.FU_type_0::SimdFloatReduceAdd            0      0.00%     79.27% # Type of FU issued
system.cpu.iq.FU_type_0::SimdFloatReduceCmp            0      0.00%     79.27% # Type of FU issued
system.cpu.iq.FU_type_0::SimdAes                    0      0.00%     79.27% # Type of FU issued
system.cpu.iq.FU_type_0::SimdAesMix                 0      0.00%     79.27% # Type of FU issued
system.cpu.iq.FU_type_0::SimdSha1Hash               0      0.00%     79.27% # Type of FU issued
system.cpu.iq.FU_type_0::SimdSha1Hash2              0      0.00%     79.27% # Type of FU issued
system.cpu.iq.FU_type_0::SimdSha256Hash             0      0.00%     79.27% # Type of FU issued
system.cpu.iq.FU_type_0::SimdSha256Hash2            0      0.00%     79.27% # Type of FU issued
system.cpu.iq.FU_type_0::SimdShaSigma2              0      0.00%     79.27% # Type of FU issued
system.cpu.iq.FU_type_0::SimdShaSigma3              0      0.00%     79.27% # Type of FU issued
system.cpu.iq.FU_type_0::SimdPredAlu                0      0.00%     79.27% # Type of FU issued
system.cpu.iq.FU_type_0::MemRead               678467     14.10%     93.37% # Type of FU issued
system.cpu.iq.FU_type_0::MemWrite              224259      4.66%     98.03% # Type of FU issued
system.cpu.iq.FU_type_0::FloatMemRead           48562      1.01%     99.04% # Type of FU issued
system.cpu.iq.FU_type_0::FloatMemWrite          46107      0.96%    100.00% # Type of FU issued
system.cpu.iq.FU_type_0::IprAccess                  0      0.00%    100.00% # Type of FU issued
system.cpu.iq.FU_type_0::InstPrefetch               0      0.00%    100.00% # Type of FU issued
system.cpu.iq.FU_type_0::total                4811813                       # Type of FU issued
system.cpu.iq.fp_alu_accesses                  157374                       # Number of floating point alu accesses
system.cpu.iq.fp_inst_queue_reads              316040                       # Number of floating instruction queue reads
system.cpu.iq.fp_inst_queue_wakeup_accesses       152872                       # Number of floating instruction queue wakeup accesses
system.cpu.iq.fp_inst_queue_writes             283334                       # Number of floating instruction queue writes
system.cpu.iq.fu_busy_cnt                           0                       # FU busy when requested
system.cpu.iq.fu_busy_rate                          0                       # FU busy rate (busy events/executed inst)
system.cpu.iq.fu_full::No_OpClass                   0                       # attempts to use FU when none available
system.cpu.iq.fu_full::IntAlu                       0                       # attempts to use FU when none available
system.cpu.iq.fu_full::IntMult                      0                       # attempts to use FU when none available
system.cpu.iq.fu_full::IntDiv                       0                       # attempts to use FU when none available
system.cpu.iq.fu_full::FloatAdd                     0                       # attempts to use FU when none available
system.cpu.iq.fu_full::FloatCmp                     0                       # attempts to use FU when none available
system.cpu.iq.fu_full::FloatCvt                     0                       # attempts to use FU when none available
system.cpu.iq.fu_full::FloatMult                    0                       # attempts to use FU when none available
system.cpu.iq.fu_full::FloatMultAcc                 0                       # attempts to use FU when none available
system.cpu.iq.fu_full::FloatDiv                     0                       # attempts to use FU when none available
system.cpu.iq.fu_full::FloatMisc                    0                       # attempts to use FU when none available
system.cpu.iq.fu_full::FloatSqrt                    0                       # attempts to use FU when none available
system.cpu.iq.fu_full::SimdAdd                      0                       # attempts to use FU when none available
system.cpu.iq.fu_full::SimdAddAcc                   0                       # attempts to use FU when none available
system.cpu.iq.fu_full::SimdAlu                      0                       # attempts to use FU when none available
system.cpu.iq.fu_full::SimdCmp                      0                       # attempts to use FU when none available
system.cpu.iq.fu_full::SimdCvt                      0                       # attempts to use FU when none available
system.cpu.iq.fu_full::SimdMisc                     0                       # attempts to use FU when none available
system.cpu.iq.fu_full::SimdMult                     0                       # attempts to use FU when none available
system.cpu.iq.fu_full::SimdMultAcc                  0                       # attempts to use FU when none available
system.cpu.iq.fu_full::SimdShift                    0                       # attempts to use FU when none available
system.cpu.iq.fu_full::SimdShiftAcc                 0                       # attempts to use FU when none available
system.cpu.iq.fu_full::SimdDiv                      0                       # attempts to use FU when none available
system.cpu.iq.fu_full::SimdSqrt                     0                       # attempts to use FU when none available
system.cpu.iq.fu_full::SimdFloatAdd                 0                       # attempts to use FU when none available
system.cpu.iq.fu_full::SimdFloatAlu                 0                       # attempts to use FU when none available
system.cpu.iq.fu_full::SimdFloatCmp                 0                       # attempts to use FU when none available
system.cpu.iq.fu_full::SimdFloatCvt                 0                       # attempts to use FU when none available
system.cpu.iq.fu_full::SimdFloatDiv                 0                       # attempts to use FU when none available
system.cpu.iq.fu_full::SimdFloatMisc                0                       # attempts to use FU when none available
system.cpu.iq.fu_full::SimdFloatMult                0                       # attempts to use FU when none available
system.cpu.iq.fu_full::SimdFloatMultAcc             0                       # attempts to use FU when none available
system.cpu.iq.fu_full::SimdFloatSqrt                0                       # attempts to use FU when none available
system.cpu.iq.fu_full::SimdReduceAdd                0                       # attempts to use FU when none available
system.cpu.iq.fu_full::SimdReduceAlu                0                       # attempts to use FU when none available
system.cpu.iq.fu_full::SimdReduceCmp                0                       # attempts to use FU when none available
system.cpu.iq.fu_full::SimdFloatReduceAdd            0                       # attempts to use FU when none available
system.cpu.iq.fu_full::SimdFloatReduceCmp            0                       # attempts to use FU when none available
system.cpu.iq.fu_full::SimdAes                      0                       # attempts to use FU when none available
system.cpu.iq.fu_full::SimdAesMix                   0                       # attempts to use FU when none available
system.cpu.iq.fu_full::SimdSha1Hash                 0                       # attempts to use FU when none available
system.cpu.iq.fu_full::SimdSha1Hash2                0                       # attempts to use FU when none available
system.cpu.iq.fu_full::SimdSha256Hash               0                       # attempts to use FU when none available
system.cpu.iq.fu_full::SimdSha256Hash2              0                       # attempts to use FU when none available
system.cpu.iq.fu_full::SimdShaSigma2                0                       # attempts to use FU when none available
system.cpu.iq.fu_full::SimdShaSigma3                0                       # attempts to use FU when none available
system.cpu.iq.fu_full::SimdPredAlu                  0                       # attempts to use FU when none available
system.cpu.iq.fu_full::MemRead                      0                       # attempts to use FU when none available
system.cpu.iq.fu_full::MemWrite                     0                       # attempts to use FU when none available
system.cpu.iq.fu_full::FloatMemRead                 0                       # attempts to use FU when none available
system.cpu.iq.fu_full::FloatMemWrite                0                       # attempts to use FU when none available
system.cpu.iq.fu_full::IprAccess                    0                       # attempts to use FU when none available
system.cpu.iq.fu_full::InstPrefetch                 0                       # attempts to use FU when none available
system.cpu.iq.int_alu_accesses                4617204                       # Number of integer alu accesses
system.cpu.iq.int_inst_queue_reads           12348031                       # Number of integer instruction queue reads
system.cpu.iq.int_inst_queue_wakeup_accesses      4586755                       # Number of integer instruction queue wakeup accesses
system.cpu.iq.int_inst_queue_writes           5988647                       # Number of integer instruction queue writes
system.cpu.iq.iqInstsAdded                    5168045                       # Number of instructions added to the IQ (excludes non-spec)
system.cpu.iq.iqInstsIssued                   4811813                       # Number of instructions issued
system.cpu.iq.iqNonSpecInstsAdded                3854                       # Number of non-speculative instructions added to the IQ
system.cpu.iq.iqSquashedInstsExamined         1099990                       # Number of squashed instructions iterated over during squash; mainly for profiling
system.cpu.iq.iqSquashedInstsIssued             18454                       # Number of squashed instructions issued
system.cpu.iq.iqSquashedNonSpecRemoved           2768                       # Number of squashed non-spec instructions that were removed
system.cpu.iq.iqSquashedOperandsExamined      1467621                       # Number of squashed operands that are examined and possibly removed from graph
system.cpu.iq.issued_per_cycle::samples       3021994                       # Number of insts issued each cycle
system.cpu.iq.issued_per_cycle::mean         1.592264                       # Number of insts issued each cycle
system.cpu.iq.issued_per_cycle::stdev        1.646971                       # Number of insts issued each cycle
system.cpu.iq.issued_per_cycle::underflows            0      0.00%      0.00% # Number of insts issued each cycle
system.cpu.iq.issued_per_cycle::0             1342699     44.43%     44.43% # Number of insts issued each cycle
system.cpu.iq.issued_per_cycle::1              268831      8.90%     53.33% # Number of insts issued each cycle
system.cpu.iq.issued_per_cycle::2              357367     11.83%     65.15% # Number of insts issued each cycle
system.cpu.iq.issued_per_cycle::3              384140     12.71%     77.86% # Number of insts issued each cycle
system.cpu.iq.issued_per_cycle::4              668957     22.14%    100.00% # Number of insts issued each cycle
system.cpu.iq.issued_per_cycle::overflows            0      0.00%    100.00% # Number of insts issued each cycle
system.cpu.iq.issued_per_cycle::min_value            0                       # Number of insts issued each cycle
system.cpu.iq.issued_per_cycle::max_value            4                       # Number of insts issued each cycle
system.cpu.iq.issued_per_cycle::total         3021994                       # Number of insts issued each cycle
system.cpu.iq.rate                           1.512803                       # Inst issue rate
system.cpu.iq.vec_alu_accesses                      0                       # Number of vector alu accesses
system.cpu.iq.vec_inst_queue_reads                  0                       # Number of vector instruction queue reads
system.cpu.iq.vec_inst_queue_wakeup_accesses            0                       # Number of vector instruction queue wakeup accesses
system.cpu.iq.vec_inst_queue_writes                 0                       # Number of vector instruction queue writes
system.cpu.itb.rdAccesses                           0                       # TLB accesses on read requests
system.cpu.itb.rdMisses                             0                       # TLB misses on read requests
system.cpu.itb.wrAccesses                      316290                       # TLB accesses on write requests
system.cpu.itb.wrMisses                           329                       # TLB misses on write requests
system.cpu.memDep0.conflictingLoads             10926                       # Number of conflicting loads.
system.cpu.memDep0.conflictingStores            48303                       # Number of conflicting stores.
system.cpu.memDep0.insertedLoads               748997                       # Number of loads inserted to the mem dependence unit.
system.cpu.memDep0.insertedStores              315017                       # Number of stores inserted to the mem dependence unit.
system.cpu.misc_regfile_reads                 1904300                       # number of misc regfile reads
system.cpu.misc_regfile_writes                    729                       # number of misc regfile writes
system.cpu.numCycles                          3180727                       # number of cpu cycles simulated
system.cpu.numWorkItemsCompleted                    0                       # number of work items this cpu completed
system.cpu.numWorkItemsStarted                      0                       # number of work items this cpu started
system.cpu.process.numSyscalls                     56                       # Number of system calls
system.cpu.rename.BlockCycles                  920116                       # Number of cycles rename is blocking
system.cpu.rename.CommittedMaps               5438191                       # Number of HB maps that are committed
system.cpu.rename.FullRegisterEvents               37                       # Number of times there has been no free registers
system.cpu.rename.IQFullEvents                  44815                       # Number of times rename has blocked due to IQ full
system.cpu.rename.IdleCycles                   416016                       # Number of cycles rename is idle
system.cpu.rename.LQFullEvents                  79274                       # Number of times rename has blocked due to LQ full
system.cpu.rename.ROBFullEvents                  5792                       # Number of times rename has blocked due to ROB full
system.cpu.rename.RenameLookups              13907390                       # Number of register rename lookups that rename has made
system.cpu.rename.RenamedInsts                5317424                       # Number of instructions processed by rename
system.cpu.rename.RenamedOperands             6977863                       # Number of destination operands rename has renamed
system.cpu.rename.RunCycles                   1341665                       # Number of cycles rename is running
system.cpu.rename.SQFullEvents                 123195                       # Number of times rename has blocked due to SQ full
system.cpu.rename.SquashCycles                  26215                       # Number of cycles rename is squashing
system.cpu.rename.UnblockCycles                297989                       # Number of cycles rename is unblocking
system.cpu.rename.UndoneMaps                  1539649                       # Number of HB maps that are undone due to squashing
system.cpu.rename.fp_rename_lookups            240075                       # Number of floating rename lookups
system.cpu.rename.int_rename_lookups          8446598                       # Number of integer rename lookups
system.cpu.rename.serializeStallCycles          19993                       # count of cycles rename stalled for serializing inst
system.cpu.rename.serializingInsts                924                       # count of serializing insts renamed
system.cpu.rename.skidInsts                    299962                       # count of insts added to the skid buffer
system.cpu.rename.tempSerializingInsts            978                       # count of temporary serializing insts renamed
system.cpu.rob.rob_reads                      7146763                       # The number of ROB reads
system.cpu.rob.rob_writes                    10447453                       # The number of ROB writes
system.cpu.timesIdled                            1809                       # Number of times that the entire CPU went into an idle state and unscheduled itself
system.l2bus.snoop_filter.hit_multi_requests           11                       # Number of requests hitting in the snoop filter with multiple (>1) holders of the requested data.
system.l2bus.snoop_filter.hit_multi_snoops            0                       # Number of snoops hitting in the snoop filter with multiple (>1) holders of the requested data.
system.l2bus.snoop_filter.hit_single_requests        20265                       # Number of requests hitting in the snoop filter with a single holder of the requested data.
system.l2bus.snoop_filter.hit_single_snoops          493                       # Number of snoops hitting in the snoop filter with a single holder of the requested data.
system.l2bus.snoop_filter.tot_requests          41810                       # Total number of requests made to the snoop filter.
system.l2bus.snoop_filter.tot_snoops              493                       # Total number of snoops made to the snoop filter.
system.l2cache.prefetcher.num_hwpf_issued          898                       # number of hwpf issued
system.l2cache.prefetcher.pfBufferHit               0                       # number of redundant prefetches already in prefetch queue
system.l2cache.prefetcher.pfIdentified            898                       # number of prefetch candidates identified
system.l2cache.prefetcher.pfInCache                 0                       # number of redundant prefetches already in cache/mshr dropped
system.l2cache.prefetcher.pfRemovedFull             0                       # number of prefetches dropped due to prefetch queue size
system.l2cache.prefetcher.pfSpanPage              150                       # number of prefetches that crossed the page
system.membus.snoop_filter.hit_multi_requests            0                       # Number of requests hitting in the snoop filter with multiple (>1) holders of the requested data.
system.membus.snoop_filter.hit_multi_snoops            0                       # Number of snoops hitting in the snoop filter with multiple (>1) holders of the requested data.
system.membus.snoop_filter.hit_single_requests        10432                       # Number of requests hitting in the snoop filter with a single holder of the requested data.
system.membus.snoop_filter.hit_single_snoops            0                       # Number of snoops hitting in the snoop filter with a single holder of the requested data.
system.membus.snoop_filter.tot_requests         24985                       # Total number of requests made to the snoop filter.
system.membus.snoop_filter.tot_snoops               0                       # Total number of snoops made to the snoop filter.
system.membus.pwrStateResidencyTicks::UNDEFINED   1272290400                       # Cumulative time (in ticks) in various power states
system.membus.trans_dist::ReadResp              12704                       # Transaction distribution
system.membus.trans_dist::WritebackDirty         1427                       # Transaction distribution
system.membus.trans_dist::CleanEvict             9005                       # Transaction distribution
system.membus.trans_dist::ReadExReq              1849                       # Transaction distribution
system.membus.trans_dist::ReadExResp             1849                       # Transaction distribution
system.membus.trans_dist::ReadSharedReq         12704                       # Transaction distribution
system.membus.pkt_count_system.l2cache.mem_side::system.mem_ctrl.port        39538                       # Packet count per connected master and slave (bytes)
system.membus.pkt_count_system.l2cache.mem_side::total        39538                       # Packet count per connected master and slave (bytes)
system.membus.pkt_count::total                  39538                       # Packet count per connected master and slave (bytes)
system.membus.pkt_size_system.l2cache.mem_side::system.mem_ctrl.port      1022720                       # Cumulative packet size per connected master and slave (bytes)
system.membus.pkt_size_system.l2cache.mem_side::total      1022720                       # Cumulative packet size per connected master and slave (bytes)
system.membus.pkt_size::total                 1022720                       # Cumulative packet size per connected master and slave (bytes)
system.membus.snoops                                0                       # Total snoops (count)
system.membus.snoopTraffic                          0                       # Total snoop traffic (bytes)
system.membus.snoop_fanout::samples             14553                       # Request fanout histogram
system.membus.snoop_fanout::mean                    0                       # Request fanout histogram
system.membus.snoop_fanout::stdev                   0                       # Request fanout histogram
system.membus.snoop_fanout::underflows              0      0.00%      0.00% # Request fanout histogram
system.membus.snoop_fanout::0                   14553    100.00%    100.00% # Request fanout histogram
system.membus.snoop_fanout::1                       0      0.00%    100.00% # Request fanout histogram
system.membus.snoop_fanout::overflows               0      0.00%    100.00% # Request fanout histogram
system.membus.snoop_fanout::min_value               0                       # Request fanout histogram
system.membus.snoop_fanout::max_value               0                       # Request fanout histogram
system.membus.snoop_fanout::total               14553                       # Request fanout histogram
system.membus.reqLayer2.occupancy            12320938                       # Layer occupancy (ticks)
system.membus.reqLayer2.utilization               1.0                       # Layer utilization (%)
system.membus.respLayer0.occupancy           31548162                       # Layer occupancy (ticks)
system.membus.respLayer0.utilization              2.5                       # Layer utilization (%)
system.l2bus.pwrStateResidencyTicks::UNDEFINED   1272290400                       # Cumulative time (in ticks) in various power states
system.l2bus.trans_dist::ReadResp               18937                       # Transaction distribution
system.l2bus.trans_dist::WritebackDirty          4578                       # Transaction distribution
system.l2bus.trans_dist::CleanEvict             26224                       # Transaction distribution
system.l2bus.trans_dist::HardPFReq               1223                       # Transaction distribution
system.l2bus.trans_dist::ReadExReq               2608                       # Transaction distribution
system.l2bus.trans_dist::ReadExResp              2608                       # Transaction distribution
system.l2bus.trans_dist::ReadSharedReq          18937                       # Transaction distribution
system.l2bus.pkt_count_system.cpu.icache.mem_side::system.l2cache.cpu_side         9846                       # Packet count per connected master and slave (bytes)
system.l2bus.pkt_count_system.cpu.dcache.mem_side::system.l2cache.cpu_side        53507                       # Packet count per connected master and slave (bytes)
system.l2bus.pkt_count::total                   63353                       # Packet count per connected master and slave (bytes)
system.l2bus.pkt_size_system.cpu.icache.mem_side::system.l2cache.cpu_side       215424                       # Cumulative packet size per connected master and slave (bytes)
system.l2bus.pkt_size_system.cpu.dcache.mem_side::system.l2cache.cpu_side      1364992                       # Cumulative packet size per connected master and slave (bytes)
system.l2bus.pkt_size::total                  1580416                       # Cumulative packet size per connected master and slave (bytes)
system.l2bus.snoops                             11762                       # Total snoops (count)
system.l2bus.snoopTraffic                       91456                       # Total snoop traffic (bytes)
system.l2bus.snoop_fanout::samples              33305                       # Request fanout histogram
system.l2bus.snoop_fanout::mean              0.015133                       # Request fanout histogram
system.l2bus.snoop_fanout::stdev             0.122083                       # Request fanout histogram
system.l2bus.snoop_fanout::underflows               0      0.00%      0.00% # Request fanout histogram
system.l2bus.snoop_fanout::0                    32801     98.49%     98.49% # Request fanout histogram
system.l2bus.snoop_fanout::1                      504      1.51%    100.00% # Request fanout histogram
system.l2bus.snoop_fanout::2                        0      0.00%    100.00% # Request fanout histogram
system.l2bus.snoop_fanout::overflows                0      0.00%    100.00% # Request fanout histogram
system.l2bus.snoop_fanout::min_value                0                       # Request fanout histogram
system.l2bus.snoop_fanout::max_value                1                       # Request fanout histogram
system.l2bus.snoop_fanout::total                33305                       # Request fanout histogram
system.l2bus.respLayer1.occupancy            21813198                       # Layer occupancy (ticks)
system.l2bus.respLayer1.utilization               1.7                       # Layer utilization (%)
system.l2bus.reqLayer0.occupancy             20739284                       # Layer occupancy (ticks)
system.l2bus.reqLayer0.utilization                1.6                       # Layer utilization (%)
system.l2bus.respLayer0.occupancy             4043994                       # Layer occupancy (ticks)
system.l2bus.respLayer0.utilization               0.3                       # Layer utilization (%)
system.clk_domain.clock                           400                       # Clock period in ticks
system.clk_domain.voltage_domain.voltage            1                       # Voltage in Volts
system.cpu.pwrStateResidencyTicks::ON      1272290400                       # Cumulative time (in ticks) in various power states
system.cpu.icache.pwrStateResidencyTicks::UNDEFINED   1272290400                       # Cumulative time (in ticks) in various power states
system.cpu.icache.demand_hits::.cpu.inst       312111                       # number of demand (read+write) hits
system.cpu.icache.demand_hits::total           312111                       # number of demand (read+write) hits
system.cpu.icache.overall_hits::.cpu.inst       312111                       # number of overall hits
system.cpu.icache.overall_hits::total          312111                       # number of overall hits
system.cpu.icache.demand_misses::.cpu.inst         4091                       # number of demand (read+write) misses
system.cpu.icache.demand_misses::total           4091                       # number of demand (read+write) misses
system.cpu.icache.overall_misses::.cpu.inst         4091                       # number of overall misses
system.cpu.icache.overall_misses::total          4091                       # number of overall misses
system.cpu.icache.demand_miss_latency::.cpu.inst    181290799                       # number of demand (read+write) miss cycles
system.cpu.icache.demand_miss_latency::total    181290799                       # number of demand (read+write) miss cycles
system.cpu.icache.overall_miss_latency::.cpu.inst    181290799                       # number of overall miss cycles
system.cpu.icache.overall_miss_latency::total    181290799                       # number of overall miss cycles
system.cpu.icache.demand_accesses::.cpu.inst       316202                       # number of demand (read+write) accesses
system.cpu.icache.demand_accesses::total       316202                       # number of demand (read+write) accesses
system.cpu.icache.overall_accesses::.cpu.inst       316202                       # number of overall (read+write) accesses
system.cpu.icache.overall_accesses::total       316202                       # number of overall (read+write) accesses
system.cpu.icache.demand_miss_rate::.cpu.inst     0.012938                       # miss rate for demand accesses
system.cpu.icache.demand_miss_rate::total     0.012938                       # miss rate for demand accesses
system.cpu.icache.overall_miss_rate::.cpu.inst     0.012938                       # miss rate for overall accesses
system.cpu.icache.overall_miss_rate::total     0.012938                       # miss rate for overall accesses
system.cpu.icache.demand_avg_miss_latency::.cpu.inst 44314.543877                       # average overall miss latency
system.cpu.icache.demand_avg_miss_latency::total 44314.543877                       # average overall miss latency
system.cpu.icache.overall_avg_miss_latency::.cpu.inst 44314.543877                       # average overall miss latency
system.cpu.icache.overall_avg_miss_latency::total 44314.543877                       # average overall miss latency
system.cpu.icache.blocked_cycles::no_mshrs          171                       # number of cycles access was blocked
system.cpu.icache.blocked_cycles::no_targets            0                       # number of cycles access was blocked
system.cpu.icache.blocked::no_mshrs                 5                       # number of cycles access was blocked
system.cpu.icache.blocked::no_targets               0                       # number of cycles access was blocked
system.cpu.icache.avg_blocked_cycles::no_mshrs    34.200000                       # average number of cycles each access was blocked
system.cpu.icache.avg_blocked_cycles::no_targets          nan                       # average number of cycles each access was blocked
system.cpu.icache.demand_mshr_hits::.cpu.inst          723                       # number of demand (read+write) MSHR hits
system.cpu.icache.demand_mshr_hits::total          723                       # number of demand (read+write) MSHR hits
system.cpu.icache.overall_mshr_hits::.cpu.inst          723                       # number of overall MSHR hits
system.cpu.icache.overall_mshr_hits::total          723                       # number of overall MSHR hits
system.cpu.icache.demand_mshr_misses::.cpu.inst         3368                       # number of demand (read+write) MSHR misses
system.cpu.icache.demand_mshr_misses::total         3368                       # number of demand (read+write) MSHR misses
system.cpu.icache.overall_mshr_misses::.cpu.inst         3368                       # number of overall MSHR misses
system.cpu.icache.overall_mshr_misses::total         3368                       # number of overall MSHR misses
system.cpu.icache.demand_mshr_miss_latency::.cpu.inst    147464000                       # number of demand (read+write) MSHR miss cycles
system.cpu.icache.demand_mshr_miss_latency::total    147464000                       # number of demand (read+write) MSHR miss cycles
system.cpu.icache.overall_mshr_miss_latency::.cpu.inst    147464000                       # number of overall MSHR miss cycles
system.cpu.icache.overall_mshr_miss_latency::total    147464000                       # number of overall MSHR miss cycles
system.cpu.icache.demand_mshr_miss_rate::.cpu.inst     0.010651                       # mshr miss rate for demand accesses
system.cpu.icache.demand_mshr_miss_rate::total     0.010651                       # mshr miss rate for demand accesses
system.cpu.icache.overall_mshr_miss_rate::.cpu.inst     0.010651                       # mshr miss rate for overall accesses
system.cpu.icache.overall_mshr_miss_rate::total     0.010651                       # mshr miss rate for overall accesses
system.cpu.icache.demand_avg_mshr_miss_latency::.cpu.inst 43783.847981                       # average overall mshr miss latency
system.cpu.icache.demand_avg_mshr_miss_latency::total 43783.847981                       # average overall mshr miss latency
system.cpu.icache.overall_avg_mshr_miss_latency::.cpu.inst 43783.847981                       # average overall mshr miss latency
system.cpu.icache.overall_avg_mshr_miss_latency::total 43783.847981                       # average overall mshr miss latency
system.cpu.icache.replacements                   3112                       # number of replacements
system.cpu.icache.ReadReq_hits::.cpu.inst       312111                       # number of ReadReq hits
system.cpu.icache.ReadReq_hits::total          312111                       # number of ReadReq hits
system.cpu.icache.ReadReq_misses::.cpu.inst         4091                       # number of ReadReq misses
system.cpu.icache.ReadReq_misses::total          4091                       # number of ReadReq misses
system.cpu.icache.ReadReq_miss_latency::.cpu.inst    181290799                       # number of ReadReq miss cycles
system.cpu.icache.ReadReq_miss_latency::total    181290799                       # number of ReadReq miss cycles
system.cpu.icache.ReadReq_accesses::.cpu.inst       316202                       # number of ReadReq accesses(hits+misses)
system.cpu.icache.ReadReq_accesses::total       316202                       # number of ReadReq accesses(hits+misses)
system.cpu.icache.ReadReq_miss_rate::.cpu.inst     0.012938                       # miss rate for ReadReq accesses
system.cpu.icache.ReadReq_miss_rate::total     0.012938                       # miss rate for ReadReq accesses
system.cpu.icache.ReadReq_avg_miss_latency::.cpu.inst 44314.543877                       # average ReadReq miss latency
system.cpu.icache.ReadReq_avg_miss_latency::total 44314.543877                       # average ReadReq miss latency
system.cpu.icache.ReadReq_mshr_hits::.cpu.inst          723                       # number of ReadReq MSHR hits
system.cpu.icache.ReadReq_mshr_hits::total          723                       # number of ReadReq MSHR hits
system.cpu.icache.ReadReq_mshr_misses::.cpu.inst         3368                       # number of ReadReq MSHR misses
system.cpu.icache.ReadReq_mshr_misses::total         3368                       # number of ReadReq MSHR misses
system.cpu.icache.ReadReq_mshr_miss_latency::.cpu.inst    147464000                       # number of ReadReq MSHR miss cycles
system.cpu.icache.ReadReq_mshr_miss_latency::total    147464000                       # number of ReadReq MSHR miss cycles
system.cpu.icache.ReadReq_mshr_miss_rate::.cpu.inst     0.010651                       # mshr miss rate for ReadReq accesses
system.cpu.icache.ReadReq_mshr_miss_rate::total     0.010651                       # mshr miss rate for ReadReq accesses
system.cpu.icache.ReadReq_avg_mshr_miss_latency::.cpu.inst 43783.847981                       # average ReadReq mshr miss latency
system.cpu.icache.ReadReq_avg_mshr_miss_latency::total 43783.847981                       # average ReadReq mshr miss latency
system.cpu.icache.prefetcher.pwrStateResidencyTicks::UNDEFINED   1272290400                       # Cumulative time (in ticks) in various power states
system.cpu.icache.tags.pwrStateResidencyTicks::UNDEFINED   1272290400                       # Cumulative time (in ticks) in various power states
system.cpu.icache.tags.tagsinuse           253.839308                       # Cycle average of tags in use
system.cpu.icache.tags.total_refs              276320                       # Total number of references to valid blocks.
system.cpu.icache.tags.sampled_refs              3112                       # Sample count of references to valid blocks.
system.cpu.icache.tags.avg_refs             88.791774                       # Average number of references to valid blocks.
system.cpu.icache.tags.warmup_cycle             66400                       # Cycle when the warmup percentage was hit.
system.cpu.icache.tags.occ_blocks::.cpu.inst   253.839308                       # Average occupied blocks per requestor
system.cpu.icache.tags.occ_percent::.cpu.inst     0.991560                       # Average percentage of cache occupancy
system.cpu.icache.tags.occ_percent::total     0.991560                       # Average percentage of cache occupancy
system.cpu.icache.tags.occ_task_id_blocks::1024          256                       # Occupied blocks per task id
system.cpu.icache.tags.age_task_id_blocks_1024::0           32                       # Occupied blocks per task id
system.cpu.icache.tags.age_task_id_blocks_1024::1           22                       # Occupied blocks per task id
system.cpu.icache.tags.age_task_id_blocks_1024::2          200                       # Occupied blocks per task id
system.cpu.icache.tags.age_task_id_blocks_1024::3            2                       # Occupied blocks per task id
system.cpu.icache.tags.occ_task_id_percent::1024            1                       # Percentage of cache occupancy per task id
system.cpu.icache.tags.tag_accesses            635772                       # Number of tag accesses
system.cpu.icache.tags.data_accesses           635772                       # Number of data accesses
system.cpu.dtb.walker.pwrStateResidencyTicks::UNDEFINED   1272290400                       # Cumulative time (in ticks) in various power states
system.cpu.interrupts.clk_domain.clock           6400                       # Clock period in ticks
system.cpu.itb.walker.pwrStateResidencyTicks::UNDEFINED   1272290400                       # Cumulative time (in ticks) in various power states
system.cpu.dcache.pwrStateResidencyTicks::UNDEFINED   1272290400                       # Cumulative time (in ticks) in various power states
system.cpu.dcache.demand_hits::.cpu.data       848183                       # number of demand (read+write) hits
system.cpu.dcache.demand_hits::total           848183                       # number of demand (read+write) hits
system.cpu.dcache.overall_hits::.cpu.data       851770                       # number of overall hits
system.cpu.dcache.overall_hits::total          851770                       # number of overall hits
system.cpu.dcache.demand_misses::.cpu.data        38063                       # number of demand (read+write) misses
system.cpu.dcache.demand_misses::total          38063                       # number of demand (read+write) misses
system.cpu.dcache.overall_misses::.cpu.data        38066                       # number of overall misses
system.cpu.dcache.overall_misses::total         38066                       # number of overall misses
system.cpu.dcache.demand_miss_latency::.cpu.data   1867187600                       # number of demand (read+write) miss cycles
system.cpu.dcache.demand_miss_latency::total   1867187600                       # number of demand (read+write) miss cycles
system.cpu.dcache.overall_miss_latency::.cpu.data   1867187600                       # number of overall miss cycles
system.cpu.dcache.overall_miss_latency::total   1867187600                       # number of overall miss cycles
system.cpu.dcache.demand_accesses::.cpu.data       886246                       # number of demand (read+write) accesses
system.cpu.dcache.demand_accesses::total       886246                       # number of demand (read+write) accesses
system.cpu.dcache.overall_accesses::.cpu.data       889836                       # number of overall (read+write) accesses
system.cpu.dcache.overall_accesses::total       889836                       # number of overall (read+write) accesses
system.cpu.dcache.demand_miss_rate::.cpu.data     0.042949                       # miss rate for demand accesses
system.cpu.dcache.demand_miss_rate::total     0.042949                       # miss rate for demand accesses
system.cpu.dcache.overall_miss_rate::.cpu.data     0.042779                       # miss rate for overall accesses
system.cpu.dcache.overall_miss_rate::total     0.042779                       # miss rate for overall accesses
system.cpu.dcache.demand_avg_miss_latency::.cpu.data 49055.187452                       # average overall miss latency
system.cpu.dcache.demand_avg_miss_latency::total 49055.187452                       # average overall miss latency
system.cpu.dcache.overall_avg_miss_latency::.cpu.data 49051.321389                       # average overall miss latency
system.cpu.dcache.overall_avg_miss_latency::total 49051.321389                       # average overall miss latency
system.cpu.dcache.blocked_cycles::no_mshrs        32689                       # number of cycles access was blocked
system.cpu.dcache.blocked_cycles::no_targets          138                       # number of cycles access was blocked
system.cpu.dcache.blocked::no_mshrs               783                       # number of cycles access was blocked
system.cpu.dcache.blocked::no_targets               1                       # number of cycles access was blocked
system.cpu.dcache.avg_blocked_cycles::no_mshrs    41.748404                       # average number of cycles each access was blocked
system.cpu.dcache.avg_blocked_cycles::no_targets          138                       # average number of cycles each access was blocked
system.cpu.dcache.unused_prefetches              1895                       # number of HardPF blocks evicted w/o reference
system.cpu.dcache.writebacks::.writebacks         3151                       # number of writebacks
system.cpu.dcache.writebacks::total              3151                       # number of writebacks
system.cpu.dcache.demand_mshr_hits::.cpu.data        24464                       # number of demand (read+write) MSHR hits
system.cpu.dcache.demand_mshr_hits::total        24464                       # number of demand (read+write) MSHR hits
system.cpu.dcache.overall_mshr_hits::.cpu.data        24464                       # number of overall MSHR hits
system.cpu.dcache.overall_mshr_hits::total        24464                       # number of overall MSHR hits
system.cpu.dcache.demand_mshr_misses::.cpu.data        13599                       # number of demand (read+write) MSHR misses
system.cpu.dcache.demand_mshr_misses::total        13599                       # number of demand (read+write) MSHR misses
system.cpu.dcache.overall_mshr_misses::.cpu.data        13601                       # number of overall MSHR misses
system.cpu.dcache.overall_mshr_misses::.cpu.dcache.prefetcher         4576                       # number of overall MSHR misses
system.cpu.dcache.overall_mshr_misses::total        18177                       # number of overall MSHR misses
system.cpu.dcache.demand_mshr_miss_latency::.cpu.data    633539600                       # number of demand (read+write) MSHR miss cycles
system.cpu.dcache.demand_mshr_miss_latency::total    633539600                       # number of demand (read+write) MSHR miss cycles
system.cpu.dcache.overall_mshr_miss_latency::.cpu.data    633616400                       # number of overall MSHR miss cycles
system.cpu.dcache.overall_mshr_miss_latency::.cpu.dcache.prefetcher    256106743                       # number of overall MSHR miss cycles
system.cpu.dcache.overall_mshr_miss_latency::total    889723143                       # number of overall MSHR miss cycles
system.cpu.dcache.demand_mshr_miss_rate::.cpu.data     0.015344                       # mshr miss rate for demand accesses
system.cpu.dcache.demand_mshr_miss_rate::total     0.015344                       # mshr miss rate for demand accesses
system.cpu.dcache.overall_mshr_miss_rate::.cpu.data     0.015285                       # mshr miss rate for overall accesses
system.cpu.dcache.overall_mshr_miss_rate::.cpu.dcache.prefetcher          inf                       # mshr miss rate for overall accesses
system.cpu.dcache.overall_mshr_miss_rate::total     0.020427                       # mshr miss rate for overall accesses
system.cpu.dcache.demand_avg_mshr_miss_latency::.cpu.data 46587.219649                       # average overall mshr miss latency
system.cpu.dcache.demand_avg_mshr_miss_latency::total 46587.219649                       # average overall mshr miss latency
system.cpu.dcache.overall_avg_mshr_miss_latency::.cpu.data 46586.015734                       # average overall mshr miss latency
system.cpu.dcache.overall_avg_mshr_miss_latency::.cpu.dcache.prefetcher 55967.382649                       # average overall mshr miss latency
system.cpu.dcache.overall_avg_mshr_miss_latency::total 48947.744017                       # average overall mshr miss latency
system.cpu.dcache.replacements                  17153                       # number of replacements
system.cpu.dcache.ReadReq_hits::.cpu.data       634149                       # number of ReadReq hits
system.cpu.dcache.ReadReq_hits::total          634149                       # number of ReadReq hits
system.cpu.dcache.ReadReq_misses::.cpu.data        35417                       # number of ReadReq misses
system.cpu.dcache.ReadReq_misses::total         35417                       # number of ReadReq misses
system.cpu.dcache.ReadReq_miss_latency::.cpu.data   1725872800                       # number of ReadReq miss cycles
system.cpu.dcache.ReadReq_miss_latency::total   1725872800                       # number of ReadReq miss cycles
system.cpu.dcache.ReadReq_accesses::.cpu.data       669566                       # number of ReadReq accesses(hits+misses)
system.cpu.dcache.ReadReq_accesses::total       669566                       # number of ReadReq accesses(hits+misses)
system.cpu.dcache.ReadReq_miss_rate::.cpu.data     0.052895                       # miss rate for ReadReq accesses
system.cpu.dcache.ReadReq_miss_rate::total     0.052895                       # miss rate for ReadReq accesses
system.cpu.dcache.ReadReq_avg_miss_latency::.cpu.data 48730.067482                       # average ReadReq miss latency
system.cpu.dcache.ReadReq_avg_miss_latency::total 48730.067482                       # average ReadReq miss latency
system.cpu.dcache.ReadReq_mshr_hits::.cpu.data        24425                       # number of ReadReq MSHR hits
system.cpu.dcache.ReadReq_mshr_hits::total        24425                       # number of ReadReq MSHR hits
system.cpu.dcache.ReadReq_mshr_misses::.cpu.data        10992                       # number of ReadReq MSHR misses
system.cpu.dcache.ReadReq_mshr_misses::total        10992                       # number of ReadReq MSHR misses
system.cpu.dcache.ReadReq_mshr_miss_latency::.cpu.data    495624400                       # number of ReadReq MSHR miss cycles
system.cpu.dcache.ReadReq_mshr_miss_latency::total    495624400                       # number of ReadReq MSHR miss cycles
system.cpu.dcache.ReadReq_mshr_miss_rate::.cpu.data     0.016417                       # mshr miss rate for ReadReq accesses
system.cpu.dcache.ReadReq_mshr_miss_rate::total     0.016417                       # mshr miss rate for ReadReq accesses
system.cpu.dcache.ReadReq_avg_mshr_miss_latency::.cpu.data 45089.556041                       # average ReadReq mshr miss latency
system.cpu.dcache.ReadReq_avg_mshr_miss_latency::total 45089.556041                       # average ReadReq mshr miss latency
system.cpu.dcache.WriteReq_hits::.cpu.data       214034                       # number of WriteReq hits
system.cpu.dcache.WriteReq_hits::total         214034                       # number of WriteReq hits
system.cpu.dcache.WriteReq_misses::.cpu.data         2646                       # number of WriteReq misses
system.cpu.dcache.WriteReq_misses::total         2646                       # number of WriteReq misses
system.cpu.dcache.WriteReq_miss_latency::.cpu.data    141314800                       # number of WriteReq miss cycles
system.cpu.dcache.WriteReq_miss_latency::total    141314800                       # number of WriteReq miss cycles
system.cpu.dcache.WriteReq_accesses::.cpu.data       216680                       # number of WriteReq accesses(hits+misses)
system.cpu.dcache.WriteReq_accesses::total       216680                       # number of WriteReq accesses(hits+misses)
system.cpu.dcache.WriteReq_miss_rate::.cpu.data     0.012212                       # miss rate for WriteReq accesses
system.cpu.dcache.WriteReq_miss_rate::total     0.012212                       # miss rate for WriteReq accesses
system.cpu.dcache.WriteReq_avg_miss_latency::.cpu.data 53406.953893                       # average WriteReq miss latency
system.cpu.dcache.WriteReq_avg_miss_latency::total 53406.953893                       # average WriteReq miss latency
system.cpu.dcache.WriteReq_mshr_hits::.cpu.data           39                       # number of WriteReq MSHR hits
system.cpu.dcache.WriteReq_mshr_hits::total           39                       # number of WriteReq MSHR hits
system.cpu.dcache.WriteReq_mshr_misses::.cpu.data         2607                       # number of WriteReq MSHR misses
system.cpu.dcache.WriteReq_mshr_misses::total         2607                       # number of WriteReq MSHR misses
[...]
system.l2cache.overall_mshr_misses::.cpu.inst          148                       # number of overall MSHR misses
system.l2cache.overall_mshr_misses::.cpu.data          129                       # number of overall MSHR misses
system.l2cache.overall_mshr_misses::.cpu.dcache.prefetcher           12                       # number of overall MSHR misses
system.l2cache.overall_mshr_misses::total          289                       # number of overall MSHR misses
system.l2cache.demand_mshr_miss_latency::.cpu.inst      8954400                       # number of demand (read+write) MSHR miss cycles
system.l2cache.demand_mshr_miss_latency::.cpu.data      7847600                       # number of demand (read+write) MSHR miss cycles
system.l2cache.demand_mshr_miss_latency::.cpu.dcache.prefetcher       707988                       # number of demand (read+write) MSHR miss cycles
system.l2cache.demand_mshr_miss_latency::total     17509988                       # number of demand (read+write) MSHR miss cycles
system.l2cache.overall_mshr_miss_latency::.cpu.inst      8954400                       # number of overall MSHR miss cycles
system.l2cache.overall_mshr_miss_latency::.cpu.data      7847600                       # number of overall MSHR miss cycles
system.l2cache.overall_mshr_miss_latency::.cpu.dcache.prefetcher       707988                       # number of overall MSHR miss cycles
system.l2cache.overall_mshr_miss_latency::total     17509988                       # number of overall MSHR miss cycles
system.l2cache.demand_mshr_miss_rate::.cpu.inst     0.560606                       # mshr miss rate for demand accesses
system.l2cache.demand_mshr_miss_rate::.cpu.data     0.307876                       # mshr miss rate for demand accesses
system.l2cache.demand_mshr_miss_rate::.cpu.dcache.prefetcher     0.087591                       # mshr miss rate for demand accesses
system.l2cache.demand_mshr_miss_rate::total     0.352439                       # mshr miss rate for demand accesses
system.l2cache.overall_mshr_miss_rate::.cpu.inst     0.560606                       # mshr miss rate for overall accesses
system.l2cache.overall_mshr_miss_rate::.cpu.data     0.307876                       # mshr miss rate for overall accesses
system.l2cache.overall_mshr_miss_rate::.cpu.dcache.prefetcher     0.087591                       # mshr miss rate for overall accesses
system.l2cache.overall_mshr_miss_rate::total     0.352439                       # mshr miss rate for overall accesses
system.l2cache.demand_avg_mshr_miss_latency::.cpu.inst 60502.702703                       # average overall mshr miss latency
system.l2cache.demand_avg_mshr_miss_latency::.cpu.data 60834.108527                       # average overall mshr miss latency
system.l2cache.demand_avg_mshr_miss_latency::.cpu.dcache.prefetcher        58999                       # average overall mshr miss latency
system.l2cache.demand_avg_mshr_miss_latency::total 60588.193772                       # average overall mshr miss latency
system.l2cache.overall_avg_mshr_miss_latency::.cpu.inst 60502.702703                       # average overall mshr miss latency
system.l2cache.overall_avg_mshr_miss_latency::.cpu.data 60834.108527                       # average overall mshr miss latency
system.l2cache.overall_avg_mshr_miss_latency::.cpu.dcache.prefetcher        58999                       # average overall mshr miss latency
system.l2cache.overall_avg_mshr_miss_latency::total 60588.193772                       # average overall mshr miss latency
system.l2cache.replacements                       290                       # number of replacements
system.l2cache.WritebackDirty_hits::.writebacks          516                       # number of WritebackDirty hits
system.l2cache.WritebackDirty_hits::total          516                       # number of WritebackDirty hits
system.l2cache.WritebackDirty_accesses::.writebacks          516                       # number of WritebackDirty accesses(hits+misses)
system.l2cache.WritebackDirty_accesses::total          516                       # number of WritebackDirty accesses(hits+misses)
system.l2cache.CleanEvict_mshr_misses::.writebacks           18                       # number of CleanEvict MSHR misses
system.l2cache.CleanEvict_mshr_misses::total           18                       # number of CleanEvict MSHR misses
system.l2cache.CleanEvict_mshr_miss_rate::.writebacks          inf                       # mshr miss rate for CleanEvict accesses
system.l2cache.CleanEvict_mshr_miss_rate::total          inf                       # mshr miss rate for CleanEvict accesses
system.l2cache.UpgradeReq_hits::.cpu.data            1                       # number of UpgradeReq hits
system.l2cache.UpgradeReq_hits::total               1                       # number of UpgradeReq hits
system.l2cache.UpgradeReq_accesses::.cpu.data            1                       # number of UpgradeReq accesses(hits+misses)
system.l2cache.UpgradeReq_accesses::total            1                       # number of UpgradeReq accesses(hits+misses)
system.l2cache.ReadExReq_hits::.cpu.data            3                       # number of ReadExReq hits
system.l2cache.ReadExReq_hits::total                3                       # number of ReadExReq hits
system.l2cache.ReadExReq_misses::.cpu.data            6                       # number of ReadExReq misses
system.l2cache.ReadExReq_misses::total              6                       # number of ReadExReq misses
system.l2cache.ReadExReq_miss_latency::.cpu.data       372800                       # number of ReadExReq miss cycles
system.l2cache.ReadExReq_miss_latency::total       372800                       # number of ReadExReq miss cycles
system.l2cache.ReadExReq_accesses::.cpu.data            9                       # number of ReadExReq accesses(hits+misses)
system.l2cache.ReadExReq_accesses::total            9                       # number of ReadExReq accesses(hits+misses)
system.l2cache.ReadExReq_miss_rate::.cpu.data     0.666667                       # miss rate for ReadExReq accesses
system.l2cache.ReadExReq_miss_rate::total     0.666667                       # miss rate for ReadExReq accesses
system.l2cache.ReadExReq_avg_miss_latency::.cpu.data 62133.333333                       # average ReadExReq miss latency
system.l2cache.ReadExReq_avg_miss_latency::total 62133.333333                       # average ReadExReq miss latency
system.l2cache.ReadExReq_mshr_misses::.cpu.data            6                       # number of ReadExReq MSHR misses
system.l2cache.ReadExReq_mshr_misses::total            6                       # number of ReadExReq MSHR misses
system.l2cache.ReadExReq_mshr_miss_latency::.cpu.data       324800                       # number of ReadExReq MSHR miss cycles
system.l2cache.ReadExReq_mshr_miss_latency::total       324800                       # number of ReadExReq MSHR miss cycles
system.l2cache.ReadExReq_mshr_miss_rate::.cpu.data     0.666667                       # mshr miss rate for ReadExReq accesses
system.l2cache.ReadExReq_mshr_miss_rate::total     0.666667                       # mshr miss rate for ReadExReq accesses
system.l2cache.ReadExReq_avg_mshr_miss_latency::.cpu.data 54133.333333                       # average ReadExReq mshr miss latency
system.l2cache.ReadExReq_avg_mshr_miss_latency::total 54133.333333                       # average ReadExReq mshr miss latency
system.l2cache.ReadSharedReq_hits::.cpu.inst          116                       # number of ReadSharedReq hits
system.l2cache.ReadSharedReq_hits::.cpu.data          287                       # number of ReadSharedReq hits
system.l2cache.ReadSharedReq_hits::.cpu.dcache.prefetcher          125                       # number of ReadSharedReq hits
system.l2cache.ReadSharedReq_hits::total          528                       # number of ReadSharedReq hits
system.l2cache.ReadSharedReq_misses::.cpu.inst          148                       # number of ReadSharedReq misses
system.l2cache.ReadSharedReq_misses::.cpu.data          123                       # number of ReadSharedReq misses
system.l2cache.ReadSharedReq_misses::.cpu.dcache.prefetcher           12                       # number of ReadSharedReq misses
system.l2cache.ReadSharedReq_misses::total          283                       # number of ReadSharedReq misses
system.l2cache.ReadSharedReq_miss_latency::.cpu.inst     10138400                       # number of ReadSharedReq miss cycles
system.l2cache.ReadSharedReq_miss_latency::.cpu.data      8506800                       # number of ReadSharedReq miss cycles
system.l2cache.ReadSharedReq_miss_latency::.cpu.dcache.prefetcher       803988                       # number of ReadSharedReq miss cycles
system.l2cache.ReadSharedReq_miss_latency::total     19449188                       # number of ReadSharedReq miss cycles
system.l2cache.ReadSharedReq_accesses::.cpu.inst          264                       # number of ReadSharedReq accesses(hits+misses)
system.l2cache.ReadSharedReq_accesses::.cpu.data          410                       # number of ReadSharedReq accesses(hits+misses)
system.l2cache.ReadSharedReq_accesses::.cpu.dcache.prefetcher          137                       # number of ReadSharedReq accesses(hits+misses)
system.l2cache.ReadSharedReq_accesses::total          811                       # number of ReadSharedReq accesses(hits+misses)
system.l2cache.ReadSharedReq_miss_rate::.cpu.inst     0.560606                       # miss rate for ReadSharedReq accesses
system.l2cache.ReadSharedReq_miss_rate::.cpu.data     0.300000                       # miss rate for ReadSharedReq accesses
system.l2cache.ReadSharedReq_miss_rate::.cpu.dcache.prefetcher     0.087591                       # miss rate for ReadSharedReq accesses
system.l2cache.ReadSharedReq_miss_rate::total     0.348952                       # miss rate for ReadSharedReq accesses
system.l2cache.ReadSharedReq_avg_miss_latency::.cpu.inst 68502.702703                       # average ReadSharedReq miss latency
system.l2cache.ReadSharedReq_avg_miss_latency::.cpu.data 69160.975610                       # average ReadSharedReq miss latency
system.l2cache.ReadSharedReq_avg_miss_latency::.cpu.dcache.prefetcher        66999                       # average ReadSharedReq miss latency
system.l2cache.ReadSharedReq_avg_miss_latency::total 68725.045936                       # average ReadSharedReq miss latency
system.l2cache.ReadSharedReq_mshr_misses::.cpu.inst          148                       # number of ReadSharedReq MSHR misses
system.l2cache.ReadSharedReq_mshr_misses::.cpu.data          123                       # number of ReadSharedReq MSHR misses
system.l2cache.ReadSharedReq_mshr_misses::.cpu.dcache.prefetcher           12                       # number of ReadSharedReq MSHR misses
system.l2cache.ReadSharedReq_mshr_misses::total          283                       # number of ReadSharedReq MSHR misses
system.l2cache.ReadSharedReq_mshr_miss_latency::.cpu.inst      8954400                       # number of ReadSharedReq MSHR miss cycles
system.l2cache.ReadSharedReq_mshr_miss_latency::.cpu.data      7522800                       # number of ReadSharedReq MSHR miss cycles
system.l2cache.ReadSharedReq_mshr_miss_latency::.cpu.dcache.prefetcher       707988                       # number of ReadSharedReq MSHR miss cycles
system.l2cache.ReadSharedReq_mshr_miss_latency::total     17185188                       # number of ReadSharedReq MSHR miss cycles
system.l2cache.ReadSharedReq_mshr_miss_rate::.cpu.inst     0.560606                       # mshr miss rate for ReadSharedReq accesses
system.l2cache.ReadSharedReq_mshr_miss_rate::.cpu.data     0.300000                       # mshr miss rate for ReadSharedReq accesses
system.l2cache.ReadSharedReq_mshr_miss_rate::.cpu.dcache.prefetcher     0.087591                       # mshr miss rate for ReadSharedReq accesses
system.l2cache.ReadSharedReq_mshr_miss_rate::total     0.348952                       # mshr miss rate for ReadSharedReq accesses
system.l2cache.ReadSharedReq_avg_mshr_miss_latency::.cpu.inst 60502.702703                       # average ReadSharedReq mshr miss latency
system.l2cache.ReadSharedReq_avg_mshr_miss_latency::.cpu.data 61160.975610                       # average ReadSharedReq mshr miss latency
system.l2cache.ReadSharedReq_avg_mshr_miss_latency::.cpu.dcache.prefetcher        58999                       # average ReadSharedReq mshr miss latency
system.l2cache.ReadSharedReq_avg_mshr_miss_latency::total 60725.045936                       # average ReadSharedReq mshr miss latency
system.l2cache.prefetcher.pwrStateResidencyTicks::UNDEFINED     25184000                       # Cumulative time (in ticks) in various power states
system.l2cache.tags.pwrStateResidencyTicks::UNDEFINED     25184000                       # Cumulative time (in ticks) in various power states
system.l2cache.tags.tagsinuse                    4096                       # Cycle average of tags in use
system.l2cache.tags.total_refs                1484683                       # Total number of references to valid blocks.
system.l2cache.tags.sampled_refs                 4386                       # Sample count of references to valid blocks.
system.l2cache.tags.avg_refs               338.505016                       # Average number of references to valid blocks.
system.l2cache.tags.warmup_cycle                    0                       # Cycle when the warmup percentage was hit.
system.l2cache.tags.occ_blocks::.writebacks    60.300238                       # Average occupied blocks per requestor
system.l2cache.tags.occ_blocks::.cpu.inst   603.820222                       # Average occupied blocks per requestor
system.l2cache.tags.occ_blocks::.cpu.data  2251.815008                       # Average occupied blocks per requestor
system.l2cache.tags.occ_blocks::.cpu.dcache.prefetcher   579.716120                       # Average occupied blocks per requestor
system.l2cache.tags.occ_blocks::.l2cache.prefetcher   600.348411                       # Average occupied blocks per requestor
system.l2cache.tags.occ_percent::.writebacks     0.014722                       # Average percentage of cache occupancy
system.l2cache.tags.occ_percent::.cpu.inst     0.147417                       # Average percentage of cache occupancy
system.l2cache.tags.occ_percent::.cpu.data     0.549760                       # Average percentage of cache occupancy
system.l2cache.tags.occ_percent::.cpu.dcache.prefetcher     0.141532                       # Average percentage of cache occupancy
system.l2cache.tags.occ_percent::.l2cache.prefetcher     0.146569                       # Average percentage of cache occupancy
system.l2cache.tags.occ_percent::total              1                       # Average percentage of cache occupancy
system.l2cache.tags.occ_task_id_blocks::1022         1148                       # Occupied blocks per task id
system.l2cache.tags.occ_task_id_blocks::1024         2948                       # Occupied blocks per task id
system.l2cache.tags.age_task_id_blocks_1022::0            9                       # Occupied blocks per task id
system.l2cache.tags.age_task_id_blocks_1022::1            6                       # Occupied blocks per task id
system.l2cache.tags.age_task_id_blocks_1022::3            1                       # Occupied blocks per task id
system.l2cache.tags.age_task_id_blocks_1022::4         1132                       # Occupied blocks per task id
system.l2cache.tags.age_task_id_blocks_1024::0          199                       # Occupied blocks per task id
system.l2cache.tags.age_task_id_blocks_1024::1          111                       # Occupied blocks per task id
system.l2cache.tags.age_task_id_blocks_1024::3            6                       # Occupied blocks per task id
system.l2cache.tags.age_task_id_blocks_1024::4         2632                       # Occupied blocks per task id
system.l2cache.tags.occ_task_id_percent::1022     0.280273                       # Percentage of cache occupancy per task id
system.l2cache.tags.occ_task_id_percent::1024     0.719727                       # Percentage of cache occupancy per task id
system.l2cache.tags.tag_accesses                13402                       # Number of tag accesses
system.l2cache.tags.data_accesses               13402                       # Number of data accesses
system.mem_ctrl.pwrStateResidencyTicks::UNDEFINED     25184000                       # Cumulative time (in ticks) in various power states
system.mem_ctrl.bytes_read::.cpu.inst            9472                       # Number of bytes read from this memory
system.mem_ctrl.bytes_read::.cpu.data            8256                       # Number of bytes read from this memory
system.mem_ctrl.bytes_read::.cpu.dcache.prefetcher          768                       # Number of bytes read from this memory
system.mem_ctrl.bytes_read::total               18496                       # Number of bytes read from this memory
system.mem_ctrl.bytes_inst_read::.cpu.inst         9472                       # Number of instructions bytes read from this memory
system.mem_ctrl.bytes_inst_read::total           9472                       # Number of instructions bytes read from this memory
system.mem_ctrl.bytes_written::.writebacks         4352                       # Number of bytes written to this memory
system.mem_ctrl.bytes_written::total             4352                       # Number of bytes written to this memory
system.mem_ctrl.num_reads::.cpu.inst              148                       # Number of read requests responded to by this memory
system.mem_ctrl.num_reads::.cpu.data              129                       # Number of read requests responded to by this memory
system.mem_ctrl.num_reads::.cpu.dcache.prefetcher           12                       # Number of read requests responded to by this memory
system.mem_ctrl.num_reads::total                  289                       # Number of read requests responded to by this memory
system.mem_ctrl.num_writes::.writebacks            68                       # Number of write requests responded to by this memory
system.mem_ctrl.num_writes::total                  68                       # Number of write requests responded to by this memory
system.mem_ctrl.bw_read::.cpu.inst          376111817                       # Total read bandwidth from this memory (bytes/s)
system.mem_ctrl.bw_read::.cpu.data          327827192                       # Total read bandwidth from this memory (bytes/s)
system.mem_ctrl.bw_read::.cpu.dcache.prefetcher     30495553                       # Total read bandwidth from this memory (bytes/s)
system.mem_ctrl.bw_read::total              734434562                       # Total read bandwidth from this memory (bytes/s)
system.mem_ctrl.bw_inst_read::.cpu.inst     376111817                       # Instruction read bandwidth from this memory (bytes/s)
system.mem_ctrl.bw_inst_read::total         376111817                       # Instruction read bandwidth from this memory (bytes/s)
system.mem_ctrl.bw_write::.writebacks       172808132                       # Write bandwidth from this memory (bytes/s)
system.mem_ctrl.bw_write::total             172808132                       # Write bandwidth from this memory (bytes/s)
system.mem_ctrl.bw_total::.writebacks       172808132                       # Total bandwidth to/from this memory (bytes/s)
system.mem_ctrl.bw_total::.cpu.inst         376111817                       # Total bandwidth to/from this memory (bytes/s)
system.mem_ctrl.bw_total::.cpu.data         327827192                       # Total bandwidth to/from this memory (bytes/s)
system.mem_ctrl.bw_total::.cpu.dcache.prefetcher     30495553                       # Total bandwidth to/from this memory (bytes/s)
system.mem_ctrl.bw_total::total             907242694                       # Total bandwidth to/from this memory (bytes/s)

---------- End Simulation Statistics   ----------
