
---------- Begin Simulation Statistics ----------
final_tick                                 3577014800                       # Number of ticks from beginning of simulation (restored from checkpoints and never reset)
host_inst_rate                                 193136                       # Simulator instruction rate (inst/s)
host_mem_usage                                4407848                       # Number of bytes of host memory used
host_op_rate                                   377199                       # Simulator op (including micro ops) rate (op/s)
host_seconds                                    49.00                       # Real time elapsed on the host
host_tick_rate                               73007433                       # Simulator tick rate (ticks/s)
sim_freq                                 1000000000000                       # Frequency of simulated ticks
sim_insts                                     9462686                       # Number of instructions simulated
sim_ops                                      18480939                       # Number of ops (including micro ops) simulated
sim_seconds                                  0.003577                       # Number of seconds simulated
sim_ticks                                  3577014800                       # Number of ticks simulated
system.cpu.branchPred.BTBCorrect                    0                       # Number of correct BTB predictions (this stat may not work properly.
system.cpu.branchPred.BTBHitPct              0.000000                       # BTB Hit Percentage
system.cpu.branchPred.BTBHits                       0                       # Number of BTB hits
system.cpu.branchPred.BTBLookups              1833267                       # Number of BTB lookups
system.cpu.branchPred.RASInCorrect                  9                       # Number of incorrect RAS predictions.
system.cpu.branchPred.condIncorrect             81235                       # Number of conditional branches incorrect
system.cpu.branchPred.condPredicted           1817328                       # Number of conditional branches predicted
system.cpu.branchPred.indirectHits             865901                       # Number of indirect target hits.
system.cpu.branchPred.indirectLookups         1833267                       # Number of indirect predictor lookups.
system.cpu.branchPred.indirectMisses           967366                       # Number of indirect misses.
system.cpu.branchPred.lookups                 2144822                       # Number of BP lookups
system.cpu.branchPred.usedRAS                  152855                       # Number of times the RAS was used to get a target.
system.cpu.branchPredindirectMispredicted        58161                       # Number of mispredicted indirect branches.
system.cpu.cc_regfile_reads                  10578438                       # number of cc regfile reads
system.cpu.cc_regfile_writes                  6381144                       # number of cc regfile writes
system.cpu.commit.amos                              0                       # Number of atomic instructions committed
system.cpu.commit.branchMispredicts             81343                       # The number of times a branch was mispredicted
system.cpu.commit.branches                    1825533                       # Number of branches committed
system.cpu.commit.bw_lim_events               2953333                       # number cycles where commit BW limit reached
system.cpu.commit.commitNonSpecStalls             750                       # The number of times commit has been forced to stall to communicate backwards
system.cpu.commit.commitSquashedInsts         1871450                       # The number of squashed insts skipped by commit
system.cpu.commit.committedInsts              9462686                       # Number of instructions committed
system.cpu.commit.committedOps               18480939                       # Number of ops (including micro ops) committed
system.cpu.commit.committed_per_cycle::samples      8257173                       # Number of insts commited each cycle
system.cpu.commit.committed_per_cycle::mean     2.238168                       # Number of insts commited each cycle
system.cpu.commit.committed_per_cycle::stdev     1.628255                       # Number of insts commited each cycle
system.cpu.commit.committed_per_cycle::underflows            0      0.00%      0.00% # Number of insts commited each cycle
system.cpu.commit.committed_per_cycle::0      2062025     24.97%     24.97% # Number of insts commited each cycle
system.cpu.commit.committed_per_cycle::1      1057247     12.80%     37.78% # Number of insts commited each cycle
system.cpu.commit.committed_per_cycle::2       943344     11.42%     49.20% # Number of insts commited each cycle
system.cpu.commit.committed_per_cycle::3      1241224     15.03%     64.23% # Number of insts commited each cycle
system.cpu.commit.committed_per_cycle::4      2953333     35.77%    100.00% # Number of insts commited each cycle
system.cpu.commit.committed_per_cycle::overflows            0      0.00%    100.00% # Number of insts commited each cycle
system.cpu.commit.committed_per_cycle::min_value            0                       # Number of insts commited each cycle
system.cpu.commit.committed_per_cycle::max_value            4                       # Number of insts commited each cycle
system.cpu.commit.committed_per_cycle::total      8257173                       # Number of insts commited each cycle
system.cpu.commit.fp_insts                     680050                       # Number of committed floating point instructions.
system.cpu.commit.function_calls               142028                       # Number of function calls committed.
system.cpu.commit.int_insts                  17922304                       # Number of committed integer instructions.
system.cpu.commit.loads                       2349896                       # Number of loads committed
system.cpu.commit.membars                           1                       # Number of memory barriers committed
system.cpu.commit.op_class_0::No_OpClass        88191      0.48%      0.48% # Class of committed instruction
system.cpu.commit.op_class_0::IntAlu         14028599     75.91%     76.39% # Class of committed instruction
system.cpu.commit.op_class_0::IntMult            7736      0.04%     76.43% # Class of committed instruction
system.cpu.commit.op_class_0::IntDiv            37699      0.20%     76.63% # Class of committed instruction
system.cpu.commit.op_class_0::FloatAdd          23014      0.12%     76.76% # Class of committed instruction
system.cpu.commit.op_class_0::FloatCmp              0      0.00%     76.76% # Class of committed instruction
system.cpu.commit.op_class_0::FloatCvt           1216      0.01%     76.76% # Class of committed instruction
system.cpu.commit.op_class_0::FloatMult             0      0.00%     76.76% # Class of committed instruction
system.cpu.commit.op_class_0::FloatMultAcc            0      0.00%     76.76% # Class of committed instruction
system.cpu.commit.op_class_0::FloatDiv              0      0.00%     76.76% # Class of committed instruction
system.cpu.commit.op_class_0::FloatMisc             0      0.00%     76.76% # Class of committed instruction
system.cpu.commit.op_class_0::FloatSqrt             0      0.00%     76.76% # Class of committed instruction
system.cpu.commit.op_class_0::SimdAdd            6226      0.03%     76.80% # Class of committed instruction
system.cpu.commit.op_class_0::SimdAddAcc            0      0.00%     76.80% # Class of committed instruction
system.cpu.commit.op_class_0::SimdAlu          150855      0.82%     77.61% # Class of committed instruction
system.cpu.commit.op_class_0::SimdCmp              14      0.00%     77.61% # Class of committed instruction
system.cpu.commit.op_class_0::SimdCvt          107368      0.58%     78.19% # Class of committed instruction
system.cpu.commit.op_class_0::SimdMisc         202252      1.09%     79.29% # Class of committed instruction
system.cpu.commit.op_class_0::SimdMult              0      0.00%     79.29% # Class of committed instruction
system.cpu.commit.op_class_0::SimdMultAcc            0      0.00%     79.29% # Class of committed instruction
system.cpu.commit.op_class_0::SimdShift          1200      0.01%     79.29% # Class of committed instruction
system.cpu.commit.op_class_0::SimdShiftAcc            0      0.00%     79.29% # Class of committed instruction
system.cpu.commit.op_class_0::SimdDiv               0      0.00%     79.29% # Class of committed instruction
system.cpu.commit.op_class_0::SimdSqrt              0      0.00%     79.29% # Class of committed instruction
system.cpu.commit.op_class_0::SimdFloatAdd            0      0.00%     79.29% # Class of committed instruction
system.cpu.commit.op_class_0::SimdFloatAlu            0      0.00%     79.29% # Class of committed instruction
system.cpu.commit.op_class_0::SimdFloatCmp            0      0.00%     79.29% # Class of committed instruction
system.cpu.commit.op_class_0::SimdFloatCvt            0      0.00%     79.29% # Class of committed instruction
system.cpu.commit.op_class_0::SimdFloatDiv            0      0.00%     79.29% # Class of committed instruction
system.cpu.commit.op_class_0::SimdFloatMisc            0      0.00%     79.29% # Class of committed instruction
system.cpu.commit.op_class_0::SimdFloatMult            0      0.00%     79.29% # Class of committed instruction
system.cpu.commit.op_class_0::SimdFloatMultAcc            0      0.00%     79.29% # Class of committed instruction
system.cpu.commit.op_class_0::SimdFloatSqrt            0      0.00%     79.29% # Class of committed instruction
system.cpu.commit.op_class_0::SimdReduceAdd            0      0.00%     79.29% # Class of committed instruction
system.cpu.commit.op_class_0::SimdReduceAlu            0      0.00%     79.29% # Class of committed instruction
system.cpu.commit.op_class_0::SimdReduceCmp            0      0.00%     79.29% # Class of committed instruction
system.cpu.commit.op_class_0::SimdFloatReduceAdd            0      0.00%     79.29% # Class of committed instruction
system.cpu.commit.op_class_0::SimdFloatReduceCmp            0      0.00%     79.29% # Class of committed instruction
system.cpu.commit.op_class_0::SimdAes               0      0.00%     79.29% # Class of committed instruction
system.cpu.commit.op_class_0::SimdAesMix            0      0.00%     79.29% # Class of committed instruction
system.cpu.commit.op_class_0::SimdSha1Hash            0      0.00%     79.29% # Class of committed instruction
system.cpu.commit.op_class_0::SimdSha1Hash2            0      0.00%     79.29% # Class of committed instruction
system.cpu.commit.op_class_0::SimdSha256Hash            0      0.00%     79.29% # Class of committed instruction
system.cpu.commit.op_class_0::SimdSha256Hash2            0      0.00%     79.29% # Class of committed instruction
system.cpu.commit.op_class_0::SimdShaSigma2            0      0.00%     79.29% # Class of committed instruction
system.cpu.commit.op_class_0::SimdShaSigma3            0      0.00%     79.29% # Class of committed instruction
system.cpu.commit.op_class_0::SimdPredAlu            0      0.00%     79.29% # Class of committed instruction
system.cpu.commit.op_class_0::MemRead         2255466     12.20%     91.50% # Class of committed instruction
system.cpu.commit.op_class_0::MemWrite        1444350      7.82%     99.31% # Class of committed instruction
system.cpu.commit.op_class_0::FloatMemRead        94430      0.51%     99.83% # Class of committed instruction
system.cpu.commit.op_class_0::FloatMemWrite        32323      0.17%    100.00% # Class of committed instruction
system.cpu.commit.op_class_0::IprAccess             0      0.00%    100.00% # Class of committed instruction
system.cpu.commit.op_class_0::InstPrefetch            0      0.00%    100.00% # Class of committed instruction
system.cpu.commit.op_class_0::total          18480939                       # Class of committed instruction
system.cpu.commit.refs                        3826569                       # Number of memory references committed
system.cpu.commit.swp_count                         0                       # Number of s/w prefetches committed
system.cpu.commit.vec_insts                         0                       # Number of committed Vector instructions.
system.cpu.committedInsts                     9462686                       # Number of Instructions Simulated
system.cpu.committedOps                      18480939                       # Number of Ops (including micro ops) Simulated
system.cpu.cpi                               0.945032                       # CPI: Cycles Per Instruction
system.cpu.cpi_total                         0.945032                       # CPI: Total CPI of All Threads
system.cpu.dcache.prefetcher.num_hwpf_issued         9396                       # number of hwpf issued
system.cpu.dcache.prefetcher.pfBufferHit        34565                       # number of redundant prefetches already in prefetch queue
system.cpu.dcache.prefetcher.pfIdentified        51193                       # number of prefetch candidates identified
system.cpu.dcache.prefetcher.pfInCache              0                       # number of redundant prefetches already in cache/mshr dropped
system.cpu.dcache.prefetcher.pfRemovedFull            0                       # number of prefetches dropped due to prefetch queue size
system.cpu.dcache.prefetcher.pfSpanPage          5399                       # number of prefetches that crossed the page
system.cpu.decode.BlockedCycles               1318887                       # Number of cycles decode is blocked
system.cpu.decode.DecodedInsts               21055549                       # Number of instructions handled by decode
system.cpu.decode.IdleCycles                  1660017                       # Number of cycles decode is idle
system.cpu.decode.RunCycles                   5539764                       # Number of cycles decode is running
system.cpu.decode.SquashCycles                  81435                       # Number of cycles decode is squashing
system.cpu.decode.UnblockCycles                169729                       # Number of cycles decode is unblocking
system.cpu.dtb.rdAccesses                     2489934                       # TLB accesses on read requests
system.cpu.dtb.rdMisses                          2059                       # TLB misses on read requests
system.cpu.dtb.wrAccesses                     1577019                       # TLB accesses on write requests
system.cpu.dtb.wrMisses                           166                       # TLB misses on write requests
system.cpu.fetch.Branches                     2144822                       # Number of branches that fetch encountered
system.cpu.fetch.CacheLines                   1451062                       # Number of cache lines fetched
system.cpu.fetch.Cycles                       7001842                       # Number of cycles fetch has run and was not squashing or blocked
system.cpu.fetch.IcacheSquashes                 21506                       # Number of outstanding Icache misses that were squashed
system.cpu.fetch.Insts                       11107248                       # Number of instructions fetch has processed
system.cpu.fetch.MiscStallCycles                  153                       # Number of cycles fetch has spent waiting on interrupts, or bad addresses, or out of MSHRs
system.cpu.fetch.PendingQuiesceStallCycles            6                       # Number of stall cycles due to pending quiesce instructions
system.cpu.fetch.PendingTrapStallCycles           839                       # Number of stall cycles due to pending traps
system.cpu.fetch.SquashCycles                  162870                       # Number of cycles fetch has spent squashing
system.cpu.fetch.branchRate                  0.239845                       # Number of branch fetches per cycle
system.cpu.fetch.icacheStallCycles            1685557                       # Number of cycles fetch is stalled on an Icache miss
system.cpu.fetch.predictedBranches            1018756                       # Number of branches that fetch has predicted taken
system.cpu.fetch.rate                        1.242069                       # Number of inst fetches per cycle
system.cpu.fetch.rateDist::samples            8769832                       # Number of instructions fetched each cycle (Total)
system.cpu.fetch.rateDist::mean              2.455998                       # Number of instructions fetched each cycle (Total)
system.cpu.fetch.rateDist::stdev             1.836517                       # Number of instructions fetched each cycle (Total)
system.cpu.fetch.rateDist::underflows               0      0.00%      0.00% # Number of instructions fetched each cycle (Total)
system.cpu.fetch.rateDist::0                  2826269     32.23%     32.23% # Number of instructions fetched each cycle (Total)
system.cpu.fetch.rateDist::1                   404890      4.62%     36.84% # Number of instructions fetched each cycle (Total)
system.cpu.fetch.rateDist::2                   300212      3.42%     40.27% # Number of instructions fetched each cycle (Total)
system.cpu.fetch.rateDist::3                   420472      4.79%     45.06% # Number of instructions fetched each cycle (Total)
system.cpu.fetch.rateDist::4                  4817989     54.94%    100.00% # Number of instructions fetched each cycle (Total)
system.cpu.fetch.rateDist::overflows                0      0.00%    100.00% # Number of instructions fetched each cycle (Total)
system.cpu.fetch.rateDist::min_value                0                       # Number of instructions fetched each cycle (Total)
system.cpu.fetch.rateDist::max_value                4                       # Number of instructions fetched each cycle (Total)
system.cpu.fetch.rateDist::total              8769832                       # Number of instructions fetched each cycle (Total)
system.cpu.fp_regfile_reads                   1148011                       # number of floating regfile reads
system.cpu.fp_regfile_writes                   597019                       # number of floating regfile writes
system.cpu.fuPool.fu_ticks_busy::IntALU(0)   1002908800                       # Total ticks fu was busy
system.cpu.fuPool.fu_ticks_busy::IntALU(1)   1002908800                       # Total ticks fu was busy
system.cpu.fuPool.fu_ticks_busy::IntALU(2)   1002908800                       # Total ticks fu was busy
system.cpu.fuPool.fu_ticks_busy::IntALU(3)   1002908800                       # Total ticks fu was busy
system.cpu.fuPool.fu_ticks_busy::IntALU(4)   1002908400                       # Total ticks fu was busy
system.cpu.fuPool.fu_ticks_busy::IntALU(5)   1002908400                       # Total ticks fu was busy
system.cpu.fuPool.fu_ticks_busy::IntMultDiv(0)      9880800                       # Total ticks fu was busy
system.cpu.fuPool.fu_ticks_busy::IntMultDiv(1)      9880000                       # Total ticks fu was busy
system.cpu.fuPool.fu_ticks_busy::FP_ALU(0)      2583200                       # Total ticks fu was busy
system.cpu.fuPool.fu_ticks_busy::FP_ALU(1)      2583200                       # Total ticks fu was busy
system.cpu.fuPool.fu_ticks_busy::FP_ALU(2)      2582800                       # Total ticks fu was busy
system.cpu.fuPool.fu_ticks_busy::FP_ALU(3)      2582400                       # Total ticks fu was busy
system.cpu.fuPool.fu_ticks_busy::FP_MultDiv(0)            0                       # Total ticks fu was busy
system.cpu.fuPool.fu_ticks_busy::FP_MultDiv(1)            0                       # Total ticks fu was busy
system.cpu.fuPool.fu_ticks_busy::SIMD_Unit(0)     46222000                       # Total ticks fu was busy
system.cpu.fuPool.fu_ticks_busy::SIMD_Unit(1)     47908000                       # Total ticks fu was busy
system.cpu.fuPool.fu_ticks_busy::SIMD_Unit(2)     47967600                       # Total ticks fu was busy
system.cpu.fuPool.fu_ticks_busy::SIMD_Unit(3)     48064800                       # Total ticks fu was busy
system.cpu.fuPool.fu_ticks_busy::PredALU(0)            0                       # Total ticks fu was busy
system.cpu.fuPool.fu_ticks_busy::RdWrPort(0)    411480000                       # Total ticks fu was busy
system.cpu.fuPool.fu_ticks_busy::RdWrPort(1)    411612800                       # Total ticks fu was busy
system.cpu.fuPool.fu_ticks_busy::RdWrPort(2)    411378000                       # Total ticks fu was busy
system.cpu.fuPool.fu_ticks_busy::RdWrPort(3)    411645200                       # Total ticks fu was busy
system.cpu.fuPool.fu_ticks_busy::IprPort(0)            0                       # Total ticks fu was busy
system.cpu.fuPool.fu_ticks_busy::total     7883822800                       # Total ticks fu was busy
system.cpu.icache.prefetcher.num_hwpf_issued            0                       # number of hwpf issued
system.cpu.icache.prefetcher.pfBufferHit            0                       # number of redundant prefetches already in prefetch queue
system.cpu.icache.prefetcher.pfIdentified            0                       # number of prefetch candidates identified
system.cpu.icache.prefetcher.pfInCache              0                       # number of redundant prefetches already in cache/mshr dropped
system.cpu.icache.prefetcher.pfRemovedFull            0                       # number of prefetches dropped due to prefetch queue size
system.cpu.icache.prefetcher.pfSpanPage             0                       # number of prefetches that crossed the page
system.cpu.idleCycles                          172706                       # Total number of cycles that the CPU has spent unscheduled due to idling
system.cpu.iew.branchMispredicts                96705                       # Number of branch mispredicts detected at execute
system.cpu.iew.exec_branches                  1906876                       # Number of branches executed
system.cpu.iew.exec_nop                             0                       # number of nop insts executed
system.cpu.iew.exec_rate                     2.199214                       # Inst execution rate
system.cpu.iew.exec_refs                      4067383                       # number of memory reference insts executed
system.cpu.iew.exec_stores                    1575823                       # Number of stores executed
system.cpu.iew.exec_swp                             0                       # number of swp insts executed
system.cpu.iew.iewBlockCycles                  911554                       # Number of cycles IEW is blocking
system.cpu.iew.iewDispLoadInsts               2559890                       # Number of dispatched load instructions
system.cpu.iew.iewDispNonSpecInsts               6487                       # Number of dispatched non-speculative instructions
system.cpu.iew.iewDispSquashedInsts               635                       # Number of squashed instructions skipped by dispatch
system.cpu.iew.iewDispStoreInsts              1623351                       # Number of dispatched store instructions
system.cpu.iew.iewDispatchedInsts            20352322                       # Number of instructions dispatched to IQ
system.cpu.iew.iewExecLoadInsts               2491560                       # Number of load instructions executed
system.cpu.iew.iewExecSquashedInsts            154568                       # Number of squashed instructions skipped in execute
system.cpu.iew.iewExecutedInsts              19666556                       # Number of executed instructions
system.cpu.iew.iewIQFullEvents                   3403                       # Number of times the IQ has become full, causing a stall
system.cpu.iew.iewIdleCycles                        0                       # Number of cycles IEW is idle
system.cpu.iew.iewLSQFullEvents                  7942                       # Number of times the LSQ has become full, causing a stall
system.cpu.iew.iewSquashCycles                  81435                       # Number of cycles IEW is squashing
system.cpu.iew.iewUnblockCycles                 14160                       # Number of cycles IEW is unblocking
system.cpu.iew.lsq.thread0.blockedLoads             0                       # Number of blocked loads due to partial load-store forwarding
system.cpu.iew.lsq.thread0.cacheBlocked           590                       # Number of times an access to memory failed due to the cache being blocked
system.cpu.iew.lsq.thread0.forwLoads           188982                       # Number of loads that had data forwarded from stores
system.cpu.iew.lsq.thread0.ignoredResponses          386                       # Number of memory responses ignored because the instruction is squashed
system.cpu.iew.lsq.thread0.invAddrLoads             0                       # Number of loads ignored due to an invalid address
system.cpu.iew.lsq.thread0.invAddrSwpfs             0                       # Number of software prefetches ignored due to an invalid address
system.cpu.iew.lsq.thread0.memOrderViolation          111                       # Number of memory ordering violations
system.cpu.iew.lsq.thread0.rescheduledLoads          120                       # Number of loads that were rescheduled
system.cpu.iew.lsq.thread0.squashedLoads       209992                       # Number of loads squashed
system.cpu.iew.lsq.thread0.squashedStores       146677                       # Number of stores squashed
system.cpu.iew.memOrderViolationEvents            111                       # Number of memory order violations
system.cpu.iew.predictedNotTakenIncorrect        79508                       # Number of branches that were predicted not taken incorrectly
system.cpu.iew.predictedTakenIncorrect          17197                       # Number of branches that were predicted taken incorrectly
system.cpu.iew.wb_consumers                  22865132                       # num instructions consuming a value
system.cpu.iew.wb_count                      19607529                       # cumulative count of insts written-back
system.cpu.iew.wb_fanout                     0.608488                       # average fanout of values written-back
system.cpu.iew.wb_producers                  13913153                       # num instructions producing a value
system.cpu.iew.wb_rate                       2.192613                       # insts written-back per cycle
system.cpu.iew.wb_sent                       19636063                       # cumulative count of insts sent to commit
system.cpu.int_regfile_reads                 29704280                       # number of integer regfile reads
system.cpu.int_regfile_writes                15567554                       # number of integer regfile writes
system.cpu.ipc                               1.058166                       # IPC: Instructions Per Cycle
system.cpu.ipc_total                         1.058166                       # IPC: Total IPC of All Threads
system.cpu.iq.FU_type_0::No_OpClass            111567      0.56%      0.56% # Type of FU issued
system.cpu.iq.FU_type_0::IntAlu              15043631     75.90%     76.46% # Type of FU issued
system.cpu.iq.FU_type_0::IntMult                 7781      0.04%     76.50% # Type of FU issued
system.cpu.iq.FU_type_0::IntDiv                 41621      0.21%     76.71% # Type of FU issued
system.cpu.iq.FU_type_0::FloatAdd               24571      0.12%     76.83% # Type of FU issued
system.cpu.iq.FU_type_0::FloatCmp                   0      0.00%     76.83% # Type of FU issued
system.cpu.iq.FU_type_0::FloatCvt                1258      0.01%     76.84% # Type of FU issued
system.cpu.iq.FU_type_0::FloatMult                  0      0.00%     76.84% # Type of FU issued
system.cpu.iq.FU_type_0::FloatMultAcc               0      0.00%     76.84% # Type of FU issued
system.cpu.iq.FU_type_0::FloatDiv                   0      0.00%     76.84% # Type of FU issued
system.cpu.iq.FU_type_0::FloatMisc                  0      0.00%     76.84% # Type of FU issued
system.cpu.iq.FU_type_0::FloatSqrt                  0      0.00%     76.84% # Type of FU issued
system.cpu.iq.FU_type_0::SimdAdd                 6813      0.03%     76.87% # Type of FU issued
system.cpu.iq.FU_type_0::SimdAddAcc                 0      0.00%     76.87% # Type of FU issued
system.cpu.iq.FU_type_0::SimdAlu               154459      0.78%     77.65% # Type of FU issued
system.cpu.iq.FU_type_0::SimdCmp                   14      0.00%     77.65% # Type of FU issued
system.cpu.iq.FU_type_0::SimdCvt               109041      0.55%     78.20% # Type of FU issued
system.cpu.iq.FU_type_0::SimdMisc              202774      1.02%     79.23% # Type of FU issued
system.cpu.iq.FU_type_0::SimdMult                   0      0.00%     79.23% # Type of FU issued
system.cpu.iq.FU_type_0::SimdMultAcc                0      0.00%     79.23% # Type of FU issued
system.cpu.iq.FU_type_0::SimdShift               2305      0.01%     79.24% # Type of FU issued
system.cpu.iq.FU_type_0::SimdShiftAcc               0      0.00%     79.24% # Type of FU issued
system.cpu.iq.FU_type_0::SimdDiv                    0      0.00%     79.24% # Type of FU issued
system.cpu.iq.FU_type_0::SimdSqrt                   0      0.00%     79.24% # Type of FU issued
system.cpu.iq.FU_type_0::SimdFloatAdd               0      0.00%     79.24% # Type of FU issued
system.cpu.iq.FU_type_0::SimdFloatAlu               0      0.00%     79.24% # Type of FU issued
system.cpu.iq.FU_type_0::SimdFloatCmp               0      0.00%     79.24% # Type of FU issued
system.cpu.iq.FU_type_0::SimdFloatCvt               0      0.00%     79.24% # Type of FU issued
system.cpu.iq.FU_type_0::SimdFloatDiv               0      0.00%     79.24% # Type of FU issued
system.cpu.iq.FU_type_0::SimdFloatMisc              0      0.00%     79.24% # Type of FU issued
system.cpu.iq.FU_type_0::SimdFloatMult              0      0.00%     79.24% # Type of FU issued
system.cpu.iq.FU_type_0::SimdFloatMultAcc            0      0.00%     79.24% # Type of FU issued
system.cpu.iq.FU_type_0::SimdFloatSqrt              0      0.00%     79.24% # Type of FU issued
system.cpu.iq.FU_type_0::SimdReduceAdd              0      0.00%     79.24% # Type of FU issued
system.cpu.iq.FU_type_0::SimdReduceAlu              0      0.00%     79.24% # Type of FU issued
system.cpu.iq.FU_type_0::SimdReduceCmp              0      0.00%     79.24% # Type of FU issued
system.cpu.iq.FU_type_0::SimdFloatReduceAdd            0      0.00%     79.24% # Type of FU issued
system.cpu.iq.FU_type_0::SimdFloatReduceCmp            0      0.00%     79.24% # Type of FU issued
system.cpu.iq.FU_type_0::SimdAes                    0      0.00%     79.24% # Type of FU issued
system.cpu.iq.FU_type_0::SimdAesMix                 0      0.00%     79.24% # Type of FU issued
system.cpu.iq.FU_type_0::SimdSha1Hash               0      0.00%     79.24% # Type of FU issued
system.cpu.iq.FU_type_0::SimdSha1Hash2              0      0.00%     79.24% # Type of FU issued
system.cpu.iq.FU_type_0::SimdSha256Hash             0      0.00%     79.24% # Type of FU issued
system.cpu.iq.FU_type_0::SimdSha256Hash2            0      0.00%     79.24% # Type of FU issued
system.cpu.iq.FU_type_0::SimdShaSigma2              0      0.00%     79.24% # Type of FU issued
system.cpu.iq.FU_type_0::SimdShaSigma3              0      0.00%     79.24% # Type of FU issued
system.cpu.iq.FU_type_0::SimdPredAlu                0      0.00%     79.24% # Type of FU issued
system.cpu.iq.FU_type_0::MemRead              2419745     12.21%     91.45% # Type of FU issued
system.cpu.iq.FU_type_0::MemWrite             1553178      7.84%     99.28% # Type of FU issued
system.cpu.iq.FU_type_0::FloatMemRead          100485      0.51%     99.79% # Type of FU issued
system.cpu.iq.FU_type_0::FloatMemWrite          41884      0.21%    100.00% # Type of FU issued
system.cpu.iq.FU_type_0::IprAccess                  0      0.00%    100.00% # Type of FU issued
system.cpu.iq.FU_type_0::InstPrefetch               0      0.00%    100.00% # Type of FU issued
system.cpu.iq.FU_type_0::total               19821127                       # Type of FU issued
system.cpu.iq.fp_alu_accesses                  704908                       # Number of floating point alu accesses
system.cpu.iq.fp_inst_queue_reads             1411194                       # Number of floating instruction queue reads
system.cpu.iq.fp_inst_queue_wakeup_accesses       699185                       # Number of floating instruction queue wakeup accesses
system.cpu.iq.fp_inst_queue_writes             753656                       # Number of floating instruction queue writes
system.cpu.iq.fu_busy_cnt                           0                       # FU busy when requested
system.cpu.iq.fu_busy_rate                          0                       # FU busy rate (busy events/executed inst)
system.cpu.iq.fu_full::No_OpClass                   0                       # attempts to use FU when none available
system.cpu.iq.fu_full::IntAlu                       0                       # attempts to use FU when none available
system.cpu.iq.fu_full::IntMult                      0                       # attempts to use FU when none available
system.cpu.iq.fu_full::IntDiv                       0                       # attempts to use FU when none available
system.cpu.iq.fu_full::FloatAdd                     0                       # attempts to use FU when none available
system.cpu.iq.fu_full::FloatCmp                     0                       # attempts to use FU when none available
system.cpu.iq.fu_full::FloatCvt                     0                       # attempts to use FU when none available
system.cpu.iq.fu_full::FloatMult                    0                       # attempts to use FU when none available
system.cpu.iq.fu_full::FloatMultAcc                 0                       # attempts to use FU when none available
system.cpu.iq.fu_full::FloatDiv                     0                       # attempts to use FU when none available
system.cpu.iq.fu_full::FloatMisc                    0                       # attempts to use FU when none available
system.cpu.iq.fu_full::FloatSqrt                    0                       # attempts to use FU when none available
system.cpu.iq.fu_full::SimdAdd                      0                       # attempts to use FU when none available
system.cpu.iq.fu_full::SimdAddAcc                   0                       # attempts to use FU when none available
system.cpu.iq.fu_full::SimdAlu                      0                       # attempts to use FU when none available
system.cpu.iq.fu_full::SimdCmp                      0                       # attempts to use FU when none available
system.cpu.iq.fu_full::SimdCvt                      0                       # attempts to use FU when none available
system.cpu.iq.fu_full::SimdMisc                     0                       # attempts to use FU when none available
system.cpu.iq.fu_full::SimdMult                     0                       # attempts to use FU when none available
system.cpu.iq.fu_full::SimdMultAcc                  0                       # attempts to use FU when none available
system.cpu.iq.fu_full::SimdShift                    0                       # attempts to use FU when none available
system.cpu.iq.fu_full::SimdShiftAcc                 0                       # attempts to use FU when none available
system.cpu.iq.fu_full::SimdDiv                      0                       # attempts to use FU when none available
system.cpu.iq.fu_full::SimdSqrt                     0                       # attempts to use FU when none available
system.cpu.iq.fu_full::SimdFloatAdd                 0                       # attempts to use FU when none available
system.cpu.iq.fu_full::SimdFloatAlu                 0                       # attempts to use FU when none available
system.cpu.iq.fu_full::SimdFloatCmp                 0                       # attempts to use FU when none available
system.cpu.iq.fu_full::SimdFloatCvt                 0                       # attempts to use FU when none available
system.cpu.iq.fu_full::SimdFloatDiv                 0                       # attempts to use FU when none available
system.cpu.iq.fu_full::SimdFloatMisc                0                       # attempts to use FU when none available
system.cpu.iq.fu_full::SimdFloatMult                0                       # attempts to use FU when none available
system.cpu.iq.fu_full::SimdFloatMultAcc             0                       # attempts to use FU when none available
system.cpu.iq.fu_full::SimdFloatSqrt                0                       # attempts to use FU when none available
system.cpu.iq.fu_full::SimdReduceAdd                0                       # attempts to use FU when none available
system.cpu.iq.fu_full::SimdReduceAlu                0                       # attempts to use FU when none available
system.cpu.iq.fu_full::SimdReduceCmp                0                       # attempts to use FU when none available
system.cpu.iq.fu_full::SimdFloatReduceAdd            0                       # attempts to use FU when none available
system.cpu.iq.fu_full::SimdFloatReduceCmp            0                       # attempts to use FU when none available
system.cpu.iq.fu_full::SimdAes                      0                       # attempts to use FU when none available
system.cpu.iq.fu_full::SimdAesMix                   0                       # attempts to use FU when none available
system.cpu.iq.fu_full::SimdSha1Hash                 0                       # attempts to use FU when none available
system.cpu.iq.fu_full::SimdSha1Hash2                0                       # attempts to use FU when none available
system.cpu.iq.fu_full::SimdSha256Hash               0                       # attempts to use FU when none available
system.cpu.iq.fu_full::SimdSha256Hash2              0                       # attempts to use FU when none available
system.cpu.iq.fu_full::SimdShaSigma2                0                       # attempts to use FU when none available
system.cpu.iq.fu_full::SimdShaSigma3                0                       # attempts to use FU when none available
system.cpu.iq.fu_full::SimdPredAlu                  0                       # attempts to use FU when none available
system.cpu.iq.fu_full::MemRead                      0                       # attempts to use FU when none available
system.cpu.iq.fu_full::MemWrite                     0                       # attempts to use FU when none available
system.cpu.iq.fu_full::FloatMemRead                 0                       # attempts to use FU when none available
system.cpu.iq.fu_full::FloatMemWrite                0                       # attempts to use FU when none available
system.cpu.iq.fu_full::IprAccess                    0                       # attempts to use FU when none available
system.cpu.iq.fu_full::InstPrefetch                 0                       # attempts to use FU when none available
system.cpu.iq.int_alu_accesses               19004652                       # Number of integer alu accesses
system.cpu.iq.int_inst_queue_reads           47030364                       # Number of integer instruction queue reads
system.cpu.iq.int_inst_queue_wakeup_accesses     18908344                       # Number of integer instruction queue wakeup accesses
system.cpu.iq.int_inst_queue_writes          21470148                       # Number of integer instruction queue writes
system.cpu.iq.iqInstsAdded                   20345224                       # Number of instructions added to the IQ (excludes non-spec)
system.cpu.iq.iqInstsIssued                  19821127                       # Number of instructions issued
system.cpu.iq.iqNonSpecInstsAdded                7098                       # Number of non-speculative instructions added to the IQ
system.cpu.iq.iqSquashedInstsExamined         1871372                       # Number of squashed instructions iterated over during squash; mainly for profiling
system.cpu.iq.iqSquashedInstsIssued             29475                       # Number of squashed instructions issued
system.cpu.iq.iqSquashedNonSpecRemoved           6348                       # Number of squashed non-spec instructions that were removed
system.cpu.iq.iqSquashedOperandsExamined      2235730                       # Number of squashed operands that are examined and possibly removed from graph
system.cpu.iq.issued_per_cycle::samples       8769832                       # Number of insts issued each cycle
system.cpu.iq.issued_per_cycle::mean         2.260149                       # Number of insts issued each cycle
system.cpu.iq.issued_per_cycle::stdev        1.536421                       # Number of insts issued each cycle
system.cpu.iq.issued_per_cycle::underflows            0      0.00%      0.00% # Number of insts issued each cycle
system.cpu.iq.issued_per_cycle::0             2022156     23.06%     23.06% # Number of insts issued each cycle
system.cpu.iq.issued_per_cycle::1              813688      9.28%     32.34% # Number of insts issued each cycle
system.cpu.iq.issued_per_cycle::2             1421382     16.21%     48.54% # Number of insts issued each cycle
system.cpu.iq.issued_per_cycle::3             1885749     21.50%     70.05% # Number of insts issued each cycle
system.cpu.iq.issued_per_cycle::4             2626857     29.95%    100.00% # Number of insts issued each cycle
system.cpu.iq.issued_per_cycle::overflows            0      0.00%    100.00% # Number of insts issued each cycle
system.cpu.iq.issued_per_cycle::min_value            0                       # Number of insts issued each cycle
system.cpu.iq.issued_per_cycle::max_value            4                       # Number of insts issued each cycle
system.cpu.iq.issued_per_cycle::total         8769832                       # Number of insts issued each cycle
system.cpu.iq.rate                           2.216499                       # Inst issue rate
system.cpu.iq.vec_alu_accesses                      0                       # Number of vector alu accesses
system.cpu.iq.vec_inst_queue_reads                  0                       # Number of vector instruction queue reads
system.cpu.iq.vec_inst_queue_wakeup_accesses            0                       # Number of vector instruction queue wakeup accesses
system.cpu.iq.vec_inst_queue_writes                 0                       # Number of vector instruction queue writes
system.cpu.itb.rdAccesses                           0                       # TLB accesses on read requests
system.cpu.itb.rdMisses                             0                       # TLB misses on read requests
system.cpu.itb.wrAccesses                     1451185                       # TLB accesses on write requests
system.cpu.itb.wrMisses                           380                       # TLB misses on write requests
system.cpu.memDep0.conflictingLoads             56518                       # Number of conflicting loads.
system.cpu.memDep0.conflictingStores            47758                       # Number of conflicting stores.
system.cpu.memDep0.insertedLoads              2559890                       # Number of loads inserted to the mem dependence unit.
system.cpu.memDep0.insertedStores             1623351                       # Number of stores inserted to the mem dependence unit.
system.cpu.misc_regfile_reads                 8047690                       # number of misc regfile reads
system.cpu.misc_regfile_writes                    684                       # number of misc regfile writes
system.cpu.numCycles                          8942538                       # number of cpu cycles simulated
system.cpu.numWorkItemsCompleted                    0                       # number of work items this cpu completed
system.cpu.numWorkItemsStarted                      0                       # number of work items this cpu started
system.cpu.process.numSyscalls                     65                       # Number of system calls
system.cpu.rename.BlockCycles                 1069002                       # Number of cycles rename is blocking
system.cpu.rename.CommittedMaps              21302958                       # Number of HB maps that are committed
system.cpu.rename.FullRegisterEvents               68                       # Number of times there has been no free registers
system.cpu.rename.IQFullEvents                  81251                       # Number of times rename has blocked due to IQ full
system.cpu.rename.IdleCycles                  1769576                       # Number of cycles rename is idle
system.cpu.rename.LQFullEvents                  17467                       # Number of times rename has blocked due to LQ full
system.cpu.rename.ROBFullEvents                  4121                       # Number of times rename has blocked due to ROB full
system.cpu.rename.RenameLookups              52669119                       # Number of register rename lookups that rename has made
system.cpu.rename.RenamedInsts               20798492                       # Number of instructions processed by rename
system.cpu.rename.RenamedOperands            24030969                       # Number of destination operands rename has renamed
system.cpu.rename.RunCycles                   5582703                       # Number of cycles rename is running
system.cpu.rename.SQFullEvents                  80054                       # Number of times rename has blocked due to SQ full
system.cpu.rename.SquashCycles                  81435                       # Number of cycles rename is squashing
system.cpu.rename.UnblockCycles                230160                       # Number of cycles rename is unblocking
system.cpu.rename.UndoneMaps                  2727988                       # Number of HB maps that are undone due to squashing
system.cpu.rename.fp_rename_lookups           1187747                       # Number of floating rename lookups
system.cpu.rename.int_rename_lookups         31631314                       # Number of integer rename lookups
system.cpu.rename.serializeStallCycles          36956                       # count of cycles rename stalled for serializing inst
system.cpu.rename.serializingInsts               6216                       # count of serializing insts renamed
system.cpu.rename.skidInsts                    343761                       # count of insts added to the skid buffer
system.cpu.rename.tempSerializingInsts           6325                       # count of temporary serializing insts renamed
system.cpu.rob.rob_reads                     25656229                       # The number of ROB reads
system.cpu.rob.rob_writes                    41218391                       # The number of ROB writes
system.cpu.timesIdled                            2189                       # Number of times that the entire CPU went into an idle state and unscheduled itself
system.l2bus.snoop_filter.hit_multi_requests           14                       # Number of requests hitting in the snoop filter with multiple (>1) holders of the requested data.
system.l2bus.snoop_filter.hit_multi_snoops            0                       # Number of snoops hitting in the snoop filter with multiple (>1) holders of the requested data.
system.l2bus.snoop_filter.hit_single_requests        26601                       # Number of requests hitting in the snoop filter with a single holder of the requested data.
system.l2bus.snoop_filter.hit_single_snoops          485                       # Number of snoops hitting in the snoop filter with a single holder of the requested data.
system.l2bus.snoop_filter.tot_requests          54481                       # Total number of requests made to the snoop filter.
system.l2bus.snoop_filter.tot_snoops              485                       # Total number of snoops made to the snoop filter.
system.l2cache.prefetcher.num_hwpf_issued          802                       # number of hwpf issued
system.l2cache.prefetcher.pfBufferHit               0                       # number of redundant prefetches already in prefetch queue
system.l2cache.prefetcher.pfIdentified            802                       # number of prefetch candidates identified
system.l2cache.prefetcher.pfInCache                 0                       # number of redundant prefetches already in cache/mshr dropped
system.l2cache.prefetcher.pfRemovedFull             0                       # number of prefetches dropped due to prefetch queue size
system.l2cache.prefetcher.pfSpanPage              106                       # number of prefetches that crossed the page
system.membus.snoop_filter.hit_multi_requests            0                       # Number of requests hitting in the snoop filter with multiple (>1) holders of the requested data.
system.membus.snoop_filter.hit_multi_snoops            0                       # Number of snoops hitting in the snoop filter with multiple (>1) holders of the requested data.
system.membus.snoop_filter.hit_single_requests        10368                       # Number of requests hitting in the snoop filter with a single holder of the requested data.
system.membus.snoop_filter.hit_single_snoops            0                       # Number of snoops hitting in the snoop filter with a single holder of the requested data.
system.membus.snoop_filter.tot_requests         24852                       # Total number of requests made to the snoop filter.
system.membus.snoop_filter.tot_snoops               0                       # Total number of snoops made to the snoop filter.
system.membus.pwrStateResidencyTicks::UNDEFINED   3577014800                       # Cumulative time (in ticks) in various power states
system.membus.trans_dist::ReadResp              12576                       # Transaction distribution
system.membus.trans_dist::WritebackDirty         1415                       # Transaction distribution
system.membus.trans_dist::CleanEvict             8953                       # Transaction distribution
system.membus.trans_dist::ReadExReq              1908                       # Transaction distribution
system.membus.trans_dist::ReadExResp             1908                       # Transaction distribution
system.membus.trans_dist::ReadSharedReq         12576                       # Transaction distribution
system.membus.pkt_count_system.l2cache.mem_side::system.mem_ctrl.port        39336                       # Packet count per connected master and slave (bytes)
system.membus.pkt_count_system.l2cache.mem_side::total        39336                       # Packet count per connected master and slave (bytes)
system.membus.pkt_count::total                  39336                       # Packet count per connected master and slave (bytes)
system.membus.pkt_size_system.l2cache.mem_side::system.mem_ctrl.port      1017536                       # Cumulative packet size per connected master and slave (bytes)
system.membus.pkt_size_system.l2cache.mem_side::total      1017536                       # Cumulative packet size per connected master and slave (bytes)
system.membus.pkt_size::total                 1017536                       # Cumulative packet size per connected master and slave (bytes)
system.membus.snoops                                0                       # Total snoops (count)
system.membus.snoopTraffic                          0                       # Total snoop traffic (bytes)
system.membus.snoop_fanout::samples             14484                       # Request fanout histogram
system.membus.snoop_fanout::mean                    0                       # Request fanout histogram
system.membus.snoop_fanout::stdev                   0                       # Request fanout histogram
system.membus.snoop_fanout::underflows              0      0.00%      0.00% # Request fanout histogram
system.membus.snoop_fanout::0                   14484    100.00%    100.00% # Request fanout histogram
system.membus.snoop_fanout::1                       0      0.00%    100.00% # Request fanout histogram
system.membus.snoop_fanout::overflows               0      0.00%    100.00% # Request fanout histogram
system.membus.snoop_fanout::min_value               0                       # Request fanout histogram
system.membus.snoop_fanout::max_value               0                       # Request fanout histogram
system.membus.snoop_fanout::total               14484                       # Request fanout histogram
system.membus.reqLayer2.occupancy            12246008                       # Layer occupancy (ticks)
system.membus.reqLayer2.utilization               0.3                       # Layer utilization (%)
system.membus.respLayer0.occupancy           31464192                       # Layer occupancy (ticks)
system.membus.respLayer0.utilization              0.9                       # Layer utilization (%)
system.l2bus.pwrStateResidencyTicks::UNDEFINED   3577014800                       # Cumulative time (in ticks) in various power states
system.l2bus.trans_dist::ReadResp               25201                       # Transaction distribution
system.l2bus.trans_dist::WritebackDirty          4824                       # Transaction distribution
system.l2bus.trans_dist::CleanEvict             32246                       # Transaction distribution
system.l2bus.trans_dist::HardPFReq               1086                       # Transaction distribution
system.l2bus.trans_dist::UpgradeReq                 1                       # Transaction distribution
system.l2bus.trans_dist::UpgradeResp                1                       # Transaction distribution
system.l2bus.trans_dist::ReadExReq               2679                       # Transaction distribution
system.l2bus.trans_dist::ReadExResp              2679                       # Transaction distribution
system.l2bus.trans_dist::ReadSharedReq          25201                       # Transaction distribution
system.l2bus.pkt_count_system.cpu.icache.mem_side::system.l2cache.cpu_side        28382                       # Packet count per connected master and slave (bytes)
system.l2bus.pkt_count_system.cpu.dcache.mem_side::system.l2cache.cpu_side        53974                       # Packet count per connected master and slave (bytes)
system.l2bus.pkt_count::total                   82356                       # Packet count per connected master and slave (bytes)
system.l2bus.pkt_size_system.cpu.icache.mem_side::system.l2cache.cpu_side       611008                       # Cumulative packet size per connected master and slave (bytes)
system.l2bus.pkt_size_system.cpu.dcache.mem_side::system.l2cache.cpu_side      1391104                       # Cumulative packet size per connected master and slave (bytes)
system.l2bus.pkt_size::total                  2002112                       # Cumulative packet size per connected master and slave (bytes)
system.l2bus.snoops                             11562                       # Total snoops (count)
system.l2bus.snoopTraffic                       90944                       # Total snoop traffic (bytes)
system.l2bus.snoop_fanout::samples              39437                       # Request fanout histogram
system.l2bus.snoop_fanout::mean              0.012653                       # Request fanout histogram
system.l2bus.snoop_fanout::stdev             0.111773                       # Request fanout histogram
system.l2bus.snoop_fanout::underflows               0      0.00%      0.00% # Request fanout histogram
system.l2bus.snoop_fanout::0                    38938     98.73%     98.73% # Request fanout histogram
system.l2bus.snoop_fanout::1                      499      1.27%    100.00% # Request fanout histogram
system.l2bus.snoop_fanout::2                        0      0.00%    100.00% # Request fanout histogram
system.l2bus.snoop_fanout::overflows                0      0.00%    100.00% # Request fanout histogram
system.l2bus.snoop_fanout::min_value                0                       # Request fanout histogram
system.l2bus.snoop_fanout::max_value                1                       # Request fanout histogram
system.l2bus.snoop_fanout::total                39437                       # Request fanout histogram
system.l2bus.respLayer1.occupancy            22001995                       # Layer occupancy (ticks)
system.l2bus.respLayer1.utilization               0.6                       # Layer utilization (%)
system.l2bus.reqLayer0.occupancy             26152004                       # Layer occupancy (ticks)
system.l2bus.reqLayer0.utilization                0.7                       # Layer utilization (%)
system.l2bus.respLayer0.occupancy            11457996                       # Layer occupancy (ticks)
system.l2bus.respLayer0.utilization               0.3                       # Layer utilization (%)
system.clk_domain.clock                           400                       # Clock period in ticks
system.clk_domain.voltage_domain.voltage            1                       # Voltage in Volts
system.cpu.pwrStateResidencyTicks::ON      3577014800                       # Cumulative time (in ticks) in various power states
system.cpu.icache.pwrStateResidencyTicks::UNDEFINED   3577014800                       # Cumulative time (in ticks) in various power states
system.cpu.icache.demand_hits::.cpu.inst      1440759                       # number of demand (read+write) hits
system.cpu.icache.demand_hits::total          1440759                       # number of demand (read+write) hits
system.cpu.icache.overall_hits::.cpu.inst      1440759                       # number of overall hits
system.cpu.icache.overall_hits::total         1440759                       # number of overall hits
system.cpu.icache.demand_misses::.cpu.inst        10302                       # number of demand (read+write) misses
system.cpu.icache.demand_misses::total          10302                       # number of demand (read+write) misses
system.cpu.icache.overall_misses::.cpu.inst        10302                       # number of overall misses
system.cpu.icache.overall_misses::total         10302                       # number of overall misses
system.cpu.icache.demand_miss_latency::.cpu.inst    255888000                       # number of demand (read+write) miss cycles
system.cpu.icache.demand_miss_latency::total    255888000                       # number of demand (read+write) miss cycles
system.cpu.icache.overall_miss_latency::.cpu.inst    255888000                       # number of overall miss cycles
system.cpu.icache.overall_miss_latency::total    255888000                       # number of overall miss cycles
system.cpu.icache.demand_accesses::.cpu.inst      1451061                       # number of demand (read+write) accesses
system.cpu.icache.demand_accesses::total      1451061                       # number of demand (read+write) accesses
system.cpu.icache.overall_accesses::.cpu.inst      1451061                       # number of overall (read+write) accesses
system.cpu.icache.overall_accesses::total      1451061                       # number of overall (read+write) accesses
system.cpu.icache.demand_miss_rate::.cpu.inst     0.007100                       # miss rate for demand accesses
system.cpu.icache.demand_miss_rate::total     0.007100                       # miss rate for demand accesses
system.cpu.icache.overall_miss_rate::.cpu.inst     0.007100                       # miss rate for overall accesses
system.cpu.icache.overall_miss_rate::total     0.007100                       # miss rate for overall accesses
system.cpu.icache.demand_avg_miss_latency::.cpu.inst 24838.672103                       # average overall miss latency
system.cpu.icache.demand_avg_miss_latency::total 24838.672103                       # average overall miss latency
system.cpu.icache.overall_avg_miss_latency::.cpu.inst 24838.672103                       # average overall miss latency
system.cpu.icache.overall_avg_miss_latency::total 24838.672103                       # average overall miss latency
system.cpu.icache.blocked_cycles::no_mshrs          160                       # number of cycles access was blocked
system.cpu.icache.blocked_cycles::no_targets            0                       # number of cycles access was blocked
system.cpu.icache.blocked::no_mshrs                 5                       # number of cycles access was blocked
system.cpu.icache.blocked::no_targets               0                       # number of cycles access was blocked
system.cpu.icache.avg_blocked_cycles::no_mshrs           32                       # average number of cycles each access was blocked
system.cpu.icache.avg_blocked_cycles::no_targets          nan                       # average number of cycles each access was blocked
system.cpu.icache.writebacks::.writebacks            3                       # number of writebacks
system.cpu.icache.writebacks::total                 3                       # number of writebacks
system.cpu.icache.demand_mshr_hits::.cpu.inst          754                       # number of demand (read+write) MSHR hits
system.cpu.icache.demand_mshr_hits::total          754                       # number of demand (read+write) MSHR hits
system.cpu.icache.overall_mshr_hits::.cpu.inst          754                       # number of overall MSHR hits
system.cpu.icache.overall_mshr_hits::total          754                       # number of overall MSHR hits
system.cpu.icache.demand_mshr_misses::.cpu.inst         9548                       # number of demand (read+write) MSHR misses
system.cpu.icache.demand_mshr_misses::total         9548                       # number of demand (read+write) MSHR misses
system.cpu.icache.overall_mshr_misses::.cpu.inst         9548                       # number of overall MSHR misses
system.cpu.icache.overall_mshr_misses::total         9548                       # number of overall MSHR misses
system.cpu.icache.demand_mshr_miss_latency::.cpu.inst    213073200                       # number of demand (read+write) MSHR miss cycles
system.cpu.icache.demand_mshr_miss_latency::total    213073200                       # number of demand (read+write) MSHR miss cycles
system.cpu.icache.overall_mshr_miss_latency::.cpu.inst    213073200                       # number of overall MSHR miss cycles
system.cpu.icache.overall_mshr_miss_latency::total    213073200                       # number of overall MSHR miss cycles
system.cpu.icache.demand_mshr_miss_rate::.cpu.inst     0.006580                       # mshr miss rate for demand accesses
system.cpu.icache.demand_mshr_miss_rate::total     0.006580                       # mshr miss rate for demand accesses
system.cpu.icache.overall_mshr_miss_rate::.cpu.inst     0.006580                       # mshr miss rate for overall accesses
system.cpu.icache.overall_mshr_miss_rate::total     0.006580                       # mshr miss rate for overall accesses
system.cpu.icache.demand_avg_mshr_miss_latency::.cpu.inst 22316.003351                       # average overall mshr miss latency
system.cpu.icache.demand_avg_mshr_miss_latency::total 22316.003351                       # average overall mshr miss latency
system.cpu.icache.overall_avg_mshr_miss_latency::.cpu.inst 22316.003351                       # average overall mshr miss latency
system.cpu.icache.overall_avg_mshr_miss_latency::total 22316.003351                       # average overall mshr miss latency
system.cpu.icache.replacements                   9291                       # number of replacements
system.cpu.icache.ReadReq_hits::.cpu.inst      1440759                       # number of ReadReq hits
system.cpu.icache.ReadReq_hits::total         1440759                       # number of ReadReq hits
system.cpu.icache.ReadReq_misses::.cpu.inst        10302                       # number of ReadReq misses
system.cpu.icache.ReadReq_misses::total         10302                       # number of ReadReq misses
system.cpu.icache.ReadReq_miss_latency::.cpu.inst    255888000                       # number of ReadReq miss cycles
system.cpu.icache.ReadReq_miss_latency::total    255888000                       # number of ReadReq miss cycles
system.cpu.icache.ReadReq_accesses::.cpu.inst      1451061                       # number of ReadReq accesses(hits+misses)
system.cpu.icache.ReadReq_accesses::total      1451061                       # number of ReadReq accesses(hits+misses)
system.cpu.icache.ReadReq_miss_rate::.cpu.inst     0.007100                       # miss rate for ReadReq accesses
system.cpu.icache.ReadReq_miss_rate::total     0.007100                       # miss rate for ReadReq accesses
system.cpu.icache.ReadReq_avg_miss_latency::.cpu.inst 24838.672103                       # average ReadReq miss latency
system.cpu.icache.ReadReq_avg_miss_latency::total 24838.672103                       # average ReadReq miss latency
system.cpu.icache.ReadReq_mshr_hits::.cpu.inst          754                       # number of ReadReq MSHR hits
system.cpu.icache.ReadReq_mshr_hits::total          754                       # number of ReadReq MSHR hits
system.cpu.icache.ReadReq_mshr_misses::.cpu.inst         9548                       # number of ReadReq MSHR misses
system.cpu.icache.ReadReq_mshr_misses::total         9548                       # number of ReadReq MSHR misses
system.cpu.icache.ReadReq_mshr_miss_latency::.cpu.inst    213073200                       # number of ReadReq MSHR miss cycles
system.cpu.icache.ReadReq_mshr_miss_latency::total    213073200                       # number of ReadReq MSHR miss cycles
system.cpu.icache.ReadReq_mshr_miss_rate::.cpu.inst     0.006580                       # mshr miss rate for ReadReq accesses
system.cpu.icache.ReadReq_mshr_miss_rate::total     0.006580                       # mshr miss rate for ReadReq accesses
system.cpu.icache.ReadReq_avg_mshr_miss_latency::.cpu.inst 22316.003351                       # average ReadReq mshr miss latency
system.cpu.icache.ReadReq_avg_mshr_miss_latency::total 22316.003351                       # average ReadReq mshr miss latency
system.cpu.icache.prefetcher.pwrStateResidencyTicks::UNDEFINED   3577014800                       # Cumulative time (in ticks) in various power states
system.cpu.icache.tags.pwrStateResidencyTicks::UNDEFINED   3577014800                       # Cumulative time (in ticks) in various power states
system.cpu.icache.tags.tagsinuse           255.230282                       # Cycle average of tags in use
system.cpu.icache.tags.total_refs              677734                       # Total number of references to valid blocks.
system.cpu.icache.tags.sampled_refs              9291                       # Sample count of references to valid blocks.
system.cpu.icache.tags.avg_refs             72.945216                       # Average number of references to valid blocks.
system.cpu.icache.tags.warmup_cycle             66400                       # Cycle when the warmup percentage was hit.
system.cpu.icache.tags.occ_blocks::.cpu.inst   255.230282                       # Average occupied blocks per requestor
system.cpu.icache.tags.occ_percent::.cpu.inst     0.996993                       # Average percentage of cache occupancy
system.cpu.icache.tags.occ_percent::total     0.996993                       # Average percentage of cache occupancy
system.cpu.icache.tags.occ_task_id_blocks::1024          256                       # Occupied blocks per task id
system.cpu.icache.tags.age_task_id_blocks_1024::0           93                       # Occupied blocks per task id
system.cpu.icache.tags.age_task_id_blocks_1024::2            5                       # Occupied blocks per task id
system.cpu.icache.tags.age_task_id_blocks_1024::3          158                       # Occupied blocks per task id
system.cpu.icache.tags.occ_task_id_percent::1024            1                       # Percentage of cache occupancy per task id
system.cpu.icache.tags.tag_accesses           2911669                       # Number of tag accesses
system.cpu.icache.tags.data_accesses          2911669                       # Number of data accesses
system.cpu.dtb.walker.pwrStateResidencyTicks::UNDEFINED   3577014800                       # Cumulative time (in ticks) in various power states
system.cpu.interrupts.clk_domain.clock           6400                       # Clock period in ticks
system.cpu.itb.walker.pwrStateResidencyTicks::UNDEFINED   3577014800                       # Cumulative time (in ticks) in various power states
system.cpu.dcache.pwrStateResidencyTicks::UNDEFINED   3577014800                       # Cumulative time (in ticks) in various power states
system.cpu.dcache.demand_hits::.cpu.data      3742155                       # number of demand (read+write) hits
system.cpu.dcache.demand_hits::total          3742155                       # number of demand (read+write) hits
system.cpu.dcache.overall_hits::.cpu.data      3742155                       # number of overall hits
system.cpu.dcache.overall_hits::total         3742155                       # number of overall hits
system.cpu.dcache.demand_misses::.cpu.data        35415                       # number of demand (read+write) misses
system.cpu.dcache.demand_misses::total          35415                       # number of demand (read+write) misses
system.cpu.dcache.overall_misses::.cpu.data        35415                       # number of overall misses
system.cpu.dcache.overall_misses::total         35415                       # number of overall misses
system.cpu.dcache.demand_miss_latency::.cpu.data   1707267199                       # number of demand (read+write) miss cycles
system.cpu.dcache.demand_miss_latency::total   1707267199                       # number of demand (read+write) miss cycles
system.cpu.dcache.overall_miss_latency::.cpu.data   1707267199                       # number of overall miss cycles
system.cpu.dcache.overall_miss_latency::total   1707267199                       # number of overall miss cycles
system.cpu.dcache.demand_accesses::.cpu.data      3777570                       # number of demand (read+write) accesses
system.cpu.dcache.demand_accesses::total      3777570                       # number of demand (read+write) accesses
system.cpu.dcache.overall_accesses::.cpu.data      3777570                       # number of overall (read+write) accesses
system.cpu.dcache.overall_accesses::total      3777570                       # number of overall (read+write) accesses
system.cpu.dcache.demand_miss_rate::.cpu.data     0.009375                       # miss rate for demand accesses
system.cpu.dcache.demand_miss_rate::total     0.009375                       # miss rate for demand accesses
system.cpu.dcache.overall_miss_rate::.cpu.data     0.009375                       # miss rate for overall accesses
system.cpu.dcache.overall_miss_rate::total     0.009375                       # miss rate for overall accesses
system.cpu.dcache.demand_avg_miss_latency::.cpu.data 48207.460088                       # average overall miss latency
system.cpu.dcache.demand_avg_miss_latency::total 48207.460088                       # average overall miss latency
system.cpu.dcache.overall_avg_miss_latency::.cpu.data 48207.460088                       # average overall miss latency
system.cpu.dcache.overall_avg_miss_latency::total 48207.460088                       # average overall miss latency
system.cpu.dcache.blocked_cycles::no_mshrs        31290                       # number of cycles access was blocked
system.cpu.dcache.blocked_cycles::no_targets          138                       # number of cycles access was blocked
system.cpu.dcache.blocked::no_mshrs               738                       # number of cycles access was blocked
system.cpu.dcache.blocked::no_targets               1                       # number of cycles access was blocked
system.cpu.dcache.avg_blocked_cycles::no_mshrs    42.398374                       # average number of cycles each access was blocked
system.cpu.dcache.avg_blocked_cycles::no_targets          138                       # average number of cycles each access was blocked
system.cpu.dcache.unused_prefetches              2121                       # number of HardPF blocks evicted w/o reference
system.cpu.dcache.writebacks::.writebacks         3406                       # number of writebacks
system.cpu.dcache.writebacks::total              3406                       # number of writebacks
system.cpu.dcache.demand_mshr_hits::.cpu.data        22175                       # number of demand (read+write) MSHR hits
system.cpu.dcache.demand_mshr_hits::total        22175                       # number of demand (read+write) MSHR hits
system.cpu.dcache.overall_mshr_hits::.cpu.data        22175                       # number of overall MSHR hits
system.cpu.dcache.overall_mshr_hits::total        22175                       # number of overall MSHR hits
system.cpu.dcache.demand_mshr_misses::.cpu.data        13240                       # number of demand (read+write) MSHR misses
system.cpu.dcache.demand_mshr_misses::total        13240                       # number of demand (read+write) MSHR misses
system.cpu.dcache.overall_mshr_misses::.cpu.data        13240                       # number of overall MSHR misses
system.cpu.dcache.overall_mshr_misses::.cpu.dcache.prefetcher         5094                       # number of overall MSHR misses
system.cpu.dcache.overall_mshr_misses::total        18334                       # number of overall MSHR misses
system.cpu.dcache.demand_mshr_miss_latency::.cpu.data    616197599                       # number of demand (read+write) MSHR miss cycles
system.cpu.dcache.demand_mshr_miss_latency::total    616197599                       # number of demand (read+write) MSHR miss cycles
system.cpu.dcache.overall_mshr_miss_latency::.cpu.data    616197599                       # number of overall MSHR miss cycles
system.cpu.dcache.overall_mshr_miss_latency::.cpu.dcache.prefetcher    273396950                       # number of overall MSHR miss cycles
system.cpu.dcache.overall_mshr_miss_latency::total    889594549                       # number of overall MSHR miss cycles
system.cpu.dcache.demand_mshr_miss_rate::.cpu.data     0.003505                       # mshr miss rate for demand accesses
system.cpu.dcache.demand_mshr_miss_rate::total     0.003505                       # mshr miss rate for demand accesses
system.cpu.dcache.overall_mshr_miss_rate::.cpu.data     0.003505                       # mshr miss rate for overall accesses
system.cpu.dcache.overall_mshr_miss_rate::.cpu.dcache.prefetcher          inf                       # mshr miss rate for overall accesses
system.cpu.dcache.overall_mshr_miss_rate::total     0.004853                       # mshr miss rate for overall accesses
system.cpu.dcache.demand_avg_mshr_miss_latency::.cpu.data 46540.604154                       # average overall mshr miss latency
system.cpu.dcache.demand_avg_mshr_miss_latency::total 46540.604154                       # average overall mshr miss latency
system.cpu.dcache.overall_avg_mshr_miss_latency::.cpu.data 46540.604154                       # average overall mshr miss latency
system.cpu.dcache.overall_avg_mshr_miss_latency::.cpu.dcache.prefetcher 53670.386729                       # average overall mshr miss latency
system.cpu.dcache.overall_avg_mshr_miss_latency::total 48521.574615                       # average overall mshr miss latency
system.cpu.dcache.replacements                  17309                       # number of replacements
system.cpu.dcache.ReadReq_hits::.cpu.data      2267012                       # number of ReadReq hits
system.cpu.dcache.ReadReq_hits::total         2267012                       # number of ReadReq hits
system.cpu.dcache.ReadReq_misses::.cpu.data        32692                       # number of ReadReq misses
system.cpu.dcache.ReadReq_misses::total         32692                       # number of ReadReq misses
system.cpu.dcache.ReadReq_miss_latency::.cpu.data   1561846800                       # number of ReadReq miss cycles
system.cpu.dcache.ReadReq_miss_latency::total   1561846800                       # number of ReadReq miss cycles
system.cpu.dcache.ReadReq_accesses::.cpu.data      2299704                       # number of ReadReq accesses(hits+misses)
system.cpu.dcache.ReadReq_accesses::total      2299704                       # number of ReadReq accesses(hits+misses)
system.cpu.dcache.ReadReq_miss_rate::.cpu.data     0.014216                       # miss rate for ReadReq accesses
system.cpu.dcache.ReadReq_miss_rate::total     0.014216                       # miss rate for ReadReq accesses
system.cpu.dcache.ReadReq_avg_miss_latency::.cpu.data 47774.587055                       # average ReadReq miss latency
system.cpu.dcache.ReadReq_avg_miss_latency::total 47774.587055                       # average ReadReq miss latency
system.cpu.dcache.ReadReq_mshr_hits::.cpu.data        22131                       # number of ReadReq MSHR hits
system.cpu.dcache.ReadReq_mshr_hits::total        22131                       # number of ReadReq MSHR hits
system.cpu.dcache.ReadReq_mshr_misses::.cpu.data        10561                       # number of ReadReq MSHR misses
system.cpu.dcache.ReadReq_mshr_misses::total        10561                       # number of ReadReq MSHR misses
system.cpu.dcache.ReadReq_mshr_miss_latency::.cpu.data    475011600                       # number of ReadReq MSHR miss cycles
system.cpu.dcache.ReadReq_mshr_miss_latency::total    475011600                       # number of ReadReq MSHR miss cycles
system.cpu.dcache.ReadReq_mshr_miss_rate::.cpu.data     0.004592                       # mshr miss rate for ReadReq accesses
system.cpu.dcache.ReadReq_mshr_miss_rate::total     0.004592                       # mshr miss rate for ReadReq accesses
system.cpu.dcache.ReadReq_avg_mshr_miss_latency::.cpu.data 44977.899820                       # average ReadReq mshr miss latency
system.cpu.dcache.ReadReq_avg_mshr_miss_latency::total 44977.899820                       # average ReadReq mshr miss latency
system.cpu.dcache.WriteReq_hits::.cpu.data      1475143                       # number of WriteReq hits
system.cpu.dcache.WriteReq_hits::total        1475143                       # number of WriteReq hits
system.cpu.dcache.WriteReq_misses::.cpu.data         2723                       # number of WriteReq misses
system.cpu.dcache.WriteReq_misses::total         2723                       # number of WriteReq misses
system.cpu.dcache.WriteReq_miss_latency::.cpu.data    145420399                       # number of WriteReq miss cycles
system.cpu.dcache.WriteReq_miss_latency::total    145420399                       # number of WriteReq miss cycles
system.cpu.dcache.WriteReq_accesses::.cpu.data      1477866                       # number of WriteReq accesses(hits+misses)
system.cpu.dcache.WriteReq_accesses::total      1477866                       # number of WriteReq accesses(hits+misses)
system.cpu.dcache.WriteReq_miss_rate::.cpu.data     0.001843                       # miss rate for WriteReq accesses
system.cpu.dcache.WriteReq_miss_rate::total     0.001843                       # miss rate for WriteReq accesses
system.cpu.dcache.WriteReq_avg_miss_latency::.cpu.data 53404.479985                       # average WriteReq miss latency
system.cpu.dcache.WriteReq_avg_miss_latency::total 53404.479985                       # average WriteReq miss latency
system.cpu.dcache.WriteReq_mshr_hits::.cpu.data           44                       # number of WriteReq MSHR hits
system.cpu.dcache.WriteReq_mshr_hits::total           44                       # number of WriteReq MSHR hits
[...]
system.l2cache.writebacks::.writebacks             36                       # number of writebacks
system.l2cache.writebacks::total                   36                       # number of writebacks
system.l2cache.demand_mshr_misses::.cpu.inst          233                       # number of demand (read+write) MSHR misses
system.l2cache.demand_mshr_misses::.cpu.data          174                       # number of demand (read+write) MSHR misses
system.l2cache.demand_mshr_misses::.cpu.dcache.prefetcher           35                       # number of demand (read+write) MSHR misses
system.l2cache.demand_mshr_misses::total          442                       # number of demand (read+write) MSHR misses
system.l2cache.overall_mshr_misses::.cpu.inst          233                       # number of overall MSHR misses
system.l2cache.overall_mshr_misses::.cpu.data          174                       # number of overall MSHR misses
system.l2cache.overall_mshr_misses::.cpu.dcache.prefetcher           35                       # number of overall MSHR misses
system.l2cache.overall_mshr_misses::total          442                       # number of overall MSHR misses
system.l2cache.demand_mshr_miss_latency::.cpu.inst     13630000                       # number of demand (read+write) MSHR miss cycles
system.l2cache.demand_mshr_miss_latency::.cpu.data     10616800                       # number of demand (read+write) MSHR miss cycles
system.l2cache.demand_mshr_miss_latency::.cpu.dcache.prefetcher      2071565                       # number of demand (read+write) MSHR miss cycles
system.l2cache.demand_mshr_miss_latency::total     26318365                       # number of demand (read+write) MSHR miss cycles
system.l2cache.overall_mshr_miss_latency::.cpu.inst     13630000                       # number of overall MSHR miss cycles
system.l2cache.overall_mshr_miss_latency::.cpu.data     10616800                       # number of overall MSHR miss cycles
system.l2cache.overall_mshr_miss_latency::.cpu.dcache.prefetcher      2071565                       # number of overall MSHR miss cycles
system.l2cache.overall_mshr_miss_latency::total     26318365                       # number of overall MSHR miss cycles
system.l2cache.demand_mshr_miss_rate::.cpu.inst     0.416071                       # mshr miss rate for demand accesses
system.l2cache.demand_mshr_miss_rate::.cpu.data     0.219975                       # mshr miss rate for demand accesses
system.l2cache.demand_mshr_miss_rate::.cpu.dcache.prefetcher     0.234899                       # mshr miss rate for demand accesses
system.l2cache.demand_mshr_miss_rate::total     0.294667                       # mshr miss rate for demand accesses
system.l2cache.overall_mshr_miss_rate::.cpu.inst     0.416071                       # mshr miss rate for overall accesses
system.l2cache.overall_mshr_miss_rate::.cpu.data     0.219975                       # mshr miss rate for overall accesses
system.l2cache.overall_mshr_miss_rate::.cpu.dcache.prefetcher     0.234899                       # mshr miss rate for overall accesses
system.l2cache.overall_mshr_miss_rate::total     0.294667                       # mshr miss rate for overall accesses
system.l2cache.demand_avg_mshr_miss_latency::.cpu.inst 58497.854077                       # average overall mshr miss latency
system.l2cache.demand_avg_mshr_miss_latency::.cpu.data 61016.091954                       # average overall mshr miss latency
system.l2cache.demand_avg_mshr_miss_latency::.cpu.dcache.prefetcher 59187.571429                       # average overall mshr miss latency
system.l2cache.demand_avg_mshr_miss_latency::total 59543.812217                       # average overall mshr miss latency
system.l2cache.overall_avg_mshr_miss_latency::.cpu.inst 58497.854077                       # average overall mshr miss latency
system.l2cache.overall_avg_mshr_miss_latency::.cpu.data 61016.091954                       # average overall mshr miss latency
system.l2cache.overall_avg_mshr_miss_latency::.cpu.dcache.prefetcher 59187.571429                       # average overall mshr miss latency
system.l2cache.overall_avg_mshr_miss_latency::total 59543.812217                       # average overall mshr miss latency
system.l2cache.replacements                       443                       # number of replacements
system.l2cache.WritebackDirty_hits::.writebacks          834                       # number of WritebackDirty hits
system.l2cache.WritebackDirty_hits::total          834                       # number of WritebackDirty hits
system.l2cache.WritebackDirty_accesses::.writebacks          834                       # number of WritebackDirty accesses(hits+misses)
system.l2cache.WritebackDirty_accesses::total          834                       # number of WritebackDirty accesses(hits+misses)
system.l2cache.CleanEvict_mshr_misses::.writebacks            9                       # number of CleanEvict MSHR misses
system.l2cache.CleanEvict_mshr_misses::total            9                       # number of CleanEvict MSHR misses
system.l2cache.CleanEvict_mshr_miss_rate::.writebacks          inf                       # mshr miss rate for CleanEvict accesses
system.l2cache.CleanEvict_mshr_miss_rate::total          inf                       # mshr miss rate for CleanEvict accesses
system.l2cache.ReadExReq_hits::.cpu.data          181                       # number of ReadExReq hits
system.l2cache.ReadExReq_hits::total              181                       # number of ReadExReq hits
system.l2cache.ReadExReq_misses::.cpu.data            7                       # number of ReadExReq misses
system.l2cache.ReadExReq_misses::total              7                       # number of ReadExReq misses
system.l2cache.ReadExReq_miss_latency::.cpu.data       487200                       # number of ReadExReq miss cycles
system.l2cache.ReadExReq_miss_latency::total       487200                       # number of ReadExReq miss cycles
system.l2cache.ReadExReq_accesses::.cpu.data          188                       # number of ReadExReq accesses(hits+misses)
system.l2cache.ReadExReq_accesses::total          188                       # number of ReadExReq accesses(hits+misses)
system.l2cache.ReadExReq_miss_rate::.cpu.data     0.037234                       # miss rate for ReadExReq accesses
system.l2cache.ReadExReq_miss_rate::total     0.037234                       # miss rate for ReadExReq accesses
system.l2cache.ReadExReq_avg_miss_latency::.cpu.data        69600                       # average ReadExReq miss latency
system.l2cache.ReadExReq_avg_miss_latency::total        69600                       # average ReadExReq miss latency
system.l2cache.ReadExReq_mshr_misses::.cpu.data            7                       # number of ReadExReq MSHR misses
system.l2cache.ReadExReq_mshr_misses::total            7                       # number of ReadExReq MSHR misses
system.l2cache.ReadExReq_mshr_miss_latency::.cpu.data       431200                       # number of ReadExReq MSHR miss cycles
system.l2cache.ReadExReq_mshr_miss_latency::total       431200                       # number of ReadExReq MSHR miss cycles
system.l2cache.ReadExReq_mshr_miss_rate::.cpu.data     0.037234                       # mshr miss rate for ReadExReq accesses
system.l2cache.ReadExReq_mshr_miss_rate::total     0.037234                       # mshr miss rate for ReadExReq accesses
system.l2cache.ReadExReq_avg_mshr_miss_latency::.cpu.data        61600                       # average ReadExReq mshr miss latency
system.l2cache.ReadExReq_avg_mshr_miss_latency::total        61600                       # average ReadExReq mshr miss latency
system.l2cache.ReadSharedReq_hits::.cpu.inst          327                       # number of ReadSharedReq hits
system.l2cache.ReadSharedReq_hits::.cpu.data          436                       # number of ReadSharedReq hits
system.l2cache.ReadSharedReq_hits::.cpu.dcache.prefetcher          114                       # number of ReadSharedReq hits
system.l2cache.ReadSharedReq_hits::total          877                       # number of ReadSharedReq hits
system.l2cache.ReadSharedReq_misses::.cpu.inst          233                       # number of ReadSharedReq misses
system.l2cache.ReadSharedReq_misses::.cpu.data          167                       # number of ReadSharedReq misses
system.l2cache.ReadSharedReq_misses::.cpu.dcache.prefetcher           35                       # number of ReadSharedReq misses
system.l2cache.ReadSharedReq_misses::total          435                       # number of ReadSharedReq misses
system.l2cache.ReadSharedReq_miss_latency::.cpu.inst     15486000                       # number of ReadSharedReq miss cycles
system.l2cache.ReadSharedReq_miss_latency::.cpu.data     11521600                       # number of ReadSharedReq miss cycles
system.l2cache.ReadSharedReq_miss_latency::.cpu.dcache.prefetcher      2351565                       # number of ReadSharedReq miss cycles
system.l2cache.ReadSharedReq_miss_latency::total     29359165                       # number of ReadSharedReq miss cycles
system.l2cache.ReadSharedReq_accesses::.cpu.inst          560                       # number of ReadSharedReq accesses(hits+misses)
system.l2cache.ReadSharedReq_accesses::.cpu.data          603                       # number of ReadSharedReq accesses(hits+misses)
system.l2cache.ReadSharedReq_accesses::.cpu.dcache.prefetcher          149                       # number of ReadSharedReq accesses(hits+misses)
system.l2cache.ReadSharedReq_accesses::total         1312                       # number of ReadSharedReq accesses(hits+misses)
system.l2cache.ReadSharedReq_miss_rate::.cpu.inst     0.416071                       # miss rate for ReadSharedReq accesses
system.l2cache.ReadSharedReq_miss_rate::.cpu.data     0.276949                       # miss rate for ReadSharedReq accesses
system.l2cache.ReadSharedReq_miss_rate::.cpu.dcache.prefetcher     0.234899                       # miss rate for ReadSharedReq accesses
system.l2cache.ReadSharedReq_miss_rate::total     0.331555                       # miss rate for ReadSharedReq accesses
system.l2cache.ReadSharedReq_avg_miss_latency::.cpu.inst 66463.519313                       # average ReadSharedReq miss latency
system.l2cache.ReadSharedReq_avg_miss_latency::.cpu.data 68991.616766                       # average ReadSharedReq miss latency
system.l2cache.ReadSharedReq_avg_miss_latency::.cpu.dcache.prefetcher 67187.571429                       # average ReadSharedReq miss latency
system.l2cache.ReadSharedReq_avg_miss_latency::total 67492.333333                       # average ReadSharedReq miss latency
system.l2cache.ReadSharedReq_mshr_misses::.cpu.inst          233                       # number of ReadSharedReq MSHR misses
system.l2cache.ReadSharedReq_mshr_misses::.cpu.data          167                       # number of ReadSharedReq MSHR misses
system.l2cache.ReadSharedReq_mshr_misses::.cpu.dcache.prefetcher           35                       # number of ReadSharedReq MSHR misses
system.l2cache.ReadSharedReq_mshr_misses::total          435                       # number of ReadSharedReq MSHR misses
system.l2cache.ReadSharedReq_mshr_miss_latency::.cpu.inst     13630000                       # number of ReadSharedReq MSHR miss cycles
system.l2cache.ReadSharedReq_mshr_miss_latency::.cpu.data     10185600                       # number of ReadSharedReq MSHR miss cycles
system.l2cache.ReadSharedReq_mshr_miss_latency::.cpu.dcache.prefetcher      2071565                       # number of ReadSharedReq MSHR miss cycles
system.l2cache.ReadSharedReq_mshr_miss_latency::total     25887165                       # number of ReadSharedReq MSHR miss cycles
system.l2cache.ReadSharedReq_mshr_miss_rate::.cpu.inst     0.416071                       # mshr miss rate for ReadSharedReq accesses
system.l2cache.ReadSharedReq_mshr_miss_rate::.cpu.data     0.276949                       # mshr miss rate for ReadSharedReq accesses
system.l2cache.ReadSharedReq_mshr_miss_rate::.cpu.dcache.prefetcher     0.234899                       # mshr miss rate for ReadSharedReq accesses
system.l2cache.ReadSharedReq_mshr_miss_rate::total     0.331555                       # mshr miss rate for ReadSharedReq accesses
system.l2cache.ReadSharedReq_avg_mshr_miss_latency::.cpu.inst 58497.854077                       # average ReadSharedReq mshr miss latency
system.l2cache.ReadSharedReq_avg_mshr_miss_latency::.cpu.data 60991.616766                       # average ReadSharedReq mshr miss latency
system.l2cache.ReadSharedReq_avg_mshr_miss_latency::.cpu.dcache.prefetcher 59187.571429                       # average ReadSharedReq mshr miss latency
system.l2cache.ReadSharedReq_avg_mshr_miss_latency::total 59510.724138                       # average ReadSharedReq mshr miss latency
system.l2cache.prefetcher.pwrStateResidencyTicks::UNDEFINED   2178810400                       # Cumulative time (in ticks) in various power states
system.l2cache.tags.pwrStateResidencyTicks::UNDEFINED   2178810400                       # Cumulative time (in ticks) in various power states
system.l2cache.tags.tagsinuse                    4096                       # Cycle average of tags in use
system.l2cache.tags.total_refs                  29060                       # Total number of references to valid blocks.
system.l2cache.tags.sampled_refs                 4539                       # Sample count of references to valid blocks.
system.l2cache.tags.avg_refs                 6.402291                       # Average number of references to valid blocks.
system.l2cache.tags.warmup_cycle                    0                       # Cycle when the warmup percentage was hit.
system.l2cache.tags.occ_blocks::.writebacks    58.996941                       # Average occupied blocks per requestor
system.l2cache.tags.occ_blocks::.cpu.inst   858.103827                       # Average occupied blocks per requestor
system.l2cache.tags.occ_blocks::.cpu.data  2046.997915                       # Average occupied blocks per requestor
system.l2cache.tags.occ_blocks::.cpu.dcache.prefetcher   823.908264                       # Average occupied blocks per requestor
system.l2cache.tags.occ_blocks::.l2cache.prefetcher   307.993053                       # Average occupied blocks per requestor
system.l2cache.tags.occ_percent::.writebacks     0.014404                       # Average percentage of cache occupancy
system.l2cache.tags.occ_percent::.cpu.inst     0.209498                       # Average percentage of cache occupancy
system.l2cache.tags.occ_percent::.cpu.data     0.499755                       # Average percentage of cache occupancy
system.l2cache.tags.occ_percent::.cpu.dcache.prefetcher     0.201149                       # Average percentage of cache occupancy
system.l2cache.tags.occ_percent::.l2cache.prefetcher     0.075194                       # Average percentage of cache occupancy
system.l2cache.tags.occ_percent::total              1                       # Average percentage of cache occupancy
system.l2cache.tags.occ_task_id_blocks::1022         1062                       # Occupied blocks per task id
system.l2cache.tags.occ_task_id_blocks::1024         3034                       # Occupied blocks per task id
system.l2cache.tags.age_task_id_blocks_1022::0           12                       # Occupied blocks per task id
system.l2cache.tags.age_task_id_blocks_1022::3         1050                       # Occupied blocks per task id
system.l2cache.tags.age_task_id_blocks_1024::0          188                       # Occupied blocks per task id
system.l2cache.tags.age_task_id_blocks_1024::1           73                       # Occupied blocks per task id
system.l2cache.tags.age_task_id_blocks_1024::3         2773                       # Occupied blocks per task id
system.l2cache.tags.occ_task_id_percent::1022     0.259277                       # Percentage of cache occupancy per task id
system.l2cache.tags.occ_task_id_percent::1024     0.740723                       # Percentage of cache occupancy per task id
system.l2cache.tags.tag_accesses                24443                       # Number of tag accesses
system.l2cache.tags.data_accesses               24443                       # Number of data accesses
system.mem_ctrl.pwrStateResidencyTicks::UNDEFINED   2178810400                       # Cumulative time (in ticks) in various power states
system.mem_ctrl.bytes_read::.cpu.inst           14848                       # Number of bytes read from this memory
system.mem_ctrl.bytes_read::.cpu.data           11136                       # Number of bytes read from this memory
system.mem_ctrl.bytes_read::.cpu.dcache.prefetcher         2240                       # Number of bytes read from this memory
system.mem_ctrl.bytes_read::total               28224                       # Number of bytes read from this memory
system.mem_ctrl.bytes_inst_read::.cpu.inst        14848                       # Number of instructions bytes read from this memory
system.mem_ctrl.bytes_inst_read::total          14848                       # Number of instructions bytes read from this memory
system.mem_ctrl.bytes_written::.writebacks         2304                       # Number of bytes written to this memory
system.mem_ctrl.bytes_written::total             2304                       # Number of bytes written to this memory
system.mem_ctrl.num_reads::.cpu.inst              232                       # Number of read requests responded to by this memory
system.mem_ctrl.num_reads::.cpu.data              174                       # Number of read requests responded to by this memory
system.mem_ctrl.num_reads::.cpu.dcache.prefetcher           35                       # Number of read requests responded to by this memory
system.mem_ctrl.num_reads::total                  441                       # Number of read requests responded to by this memory
system.mem_ctrl.num_writes::.writebacks            36                       # Number of write requests responded to by this memory
system.mem_ctrl.num_writes::total                  36                       # Number of write requests responded to by this memory
system.mem_ctrl.bw_read::.cpu.inst            6814728                       # Total read bandwidth from this memory (bytes/s)
system.mem_ctrl.bw_read::.cpu.data            5111046                       # Total read bandwidth from this memory (bytes/s)
system.mem_ctrl.bw_read::.cpu.dcache.prefetcher      1028084                       # Total read bandwidth from this memory (bytes/s)
system.mem_ctrl.bw_read::total               12953858                       # Total read bandwidth from this memory (bytes/s)
system.mem_ctrl.bw_inst_read::.cpu.inst       6814728                       # Instruction read bandwidth from this memory (bytes/s)
system.mem_ctrl.bw_inst_read::total           6814728                       # Instruction read bandwidth from this memory (bytes/s)
system.mem_ctrl.bw_write::.writebacks         1057458                       # Write bandwidth from this memory (bytes/s)
system.mem_ctrl.bw_write::total               1057458                       # Write bandwidth from this memory (bytes/s)
system.mem_ctrl.bw_total::.writebacks         1057458                       # Total bandwidth to/from this memory (bytes/s)
system.mem_ctrl.bw_total::.cpu.inst           6814728                       # Total bandwidth to/from this memory (bytes/s)
system.mem_ctrl.bw_total::.cpu.data           5111046                       # Total bandwidth to/from this memory (bytes/s)
system.mem_ctrl.bw_total::.cpu.dcache.prefetcher      1028084                       # Total bandwidth to/from this memory (bytes/s)
system.mem_ctrl.bw_total::total              14011316                       # Total bandwidth to/from this memory (bytes/s)

---------- End Simulation Statistics   ----------
