
---------- Begin Simulation Statistics ----------
final_tick                                 1471337200                       # Number of ticks from beginning of simulation (restored from checkpoints and never reset)
host_inst_rate                                 191893                       # Simulator instruction rate (inst/s)
host_mem_usage                                4406824                       # Number of bytes of host memory used
host_op_rate                                   345699                       # Simulator op (including micro ops) rate (op/s)
host_seconds                                    16.87                       # Real time elapsed on the host
host_tick_rate                               87212693                       # Simulator tick rate (ticks/s)
sim_freq                                 1000000000000                       # Frequency of simulated ticks
sim_insts                                     3237354                       # Number of instructions simulated
sim_ops                                       5832165                       # Number of ops (including micro ops) simulated
sim_seconds                                  0.001471                       # Number of seconds simulated
sim_ticks                                  1471337200                       # Number of ticks simulated
system.cpu.branchPred.BTBCorrect                    0                       # Number of correct BTB predictions (this stat may not work properly.
system.cpu.branchPred.BTBHitPct              0.000000                       # BTB Hit Percentage
system.cpu.branchPred.BTBHits                       0                       # Number of BTB hits
system.cpu.branchPred.BTBLookups               650388                       # Number of BTB lookups
system.cpu.branchPred.RASInCorrect                  6                       # Number of incorrect RAS predictions.
system.cpu.branchPred.condIncorrect             27344                       # Number of conditional branches incorrect
system.cpu.branchPred.condPredicted            680462                       # Number of conditional branches predicted
system.cpu.branchPred.indirectHits             360322                       # Number of indirect target hits.
system.cpu.branchPred.indirectLookups          650388                       # Number of indirect predictor lookups.
system.cpu.branchPred.indirectMisses           290066                       # Number of indirect misses.
system.cpu.branchPred.lookups                  743805                       # Number of BP lookups
system.cpu.branchPred.usedRAS                   29969                       # Number of times the RAS was used to get a target.
system.cpu.branchPredindirectMispredicted        13108                       # Number of mispredicted indirect branches.
system.cpu.cc_regfile_reads                   3671075                       # number of cc regfile reads
system.cpu.cc_regfile_writes                  2706741                       # number of cc regfile writes
system.cpu.commit.amos                              0                       # Number of atomic instructions committed
system.cpu.commit.branchMispredicts             27449                       # The number of times a branch was mispredicted
system.cpu.commit.branches                     583124                       # Number of branches committed
system.cpu.commit.bw_lim_events                949896                       # number cycles where commit BW limit reached
system.cpu.commit.commitNonSpecStalls             745                       # The number of times commit has been forced to stall to communicate backwards
system.cpu.commit.commitSquashedInsts          984029                       # The number of squashed insts skipped by commit
system.cpu.commit.committedInsts              3237354                       # Number of instructions committed
system.cpu.commit.committedOps                5832165                       # Number of ops (including micro ops) committed
system.cpu.commit.committed_per_cycle::samples      3245173                       # Number of insts commited each cycle
system.cpu.commit.committed_per_cycle::mean     1.797182                       # Number of insts commited each cycle
system.cpu.commit.committed_per_cycle::stdev     1.709908                       # Number of insts commited each cycle
system.cpu.commit.committed_per_cycle::underflows            0      0.00%      0.00% # Number of insts commited each cycle
system.cpu.commit.committed_per_cycle::0      1272472     39.21%     39.21% # Number of insts commited each cycle
system.cpu.commit.committed_per_cycle::1       372616     11.48%     50.69% # Number of insts commited each cycle
system.cpu.commit.committed_per_cycle::2       290602      8.95%     59.65% # Number of insts commited each cycle
system.cpu.commit.committed_per_cycle::3       359587     11.08%     70.73% # Number of insts commited each cycle
system.cpu.commit.committed_per_cycle::4       949896     29.27%    100.00% # Number of insts commited each cycle
system.cpu.commit.committed_per_cycle::overflows            0      0.00%    100.00% # Number of insts commited each cycle
system.cpu.commit.committed_per_cycle::min_value            0                       # Number of insts commited each cycle
system.cpu.commit.committed_per_cycle::max_value            4                       # Number of insts commited each cycle
system.cpu.commit.committed_per_cycle::total      3245173                       # Number of insts commited each cycle
system.cpu.commit.fp_insts                     148543                       # Number of committed floating point instructions.
system.cpu.commit.function_calls                27550                       # Number of function calls committed.
system.cpu.commit.int_insts                   5713621                       # Number of committed integer instructions.
system.cpu.commit.loads                        758037                       # Number of loads committed
system.cpu.commit.membars                           1                       # Number of memory barriers committed
system.cpu.commit.op_class_0::No_OpClass        28644      0.49%      0.49% # Class of committed instruction
system.cpu.commit.op_class_0::IntAlu          4550523     78.02%     78.52% # Class of committed instruction
system.cpu.commit.op_class_0::IntMult           13982      0.24%     78.76% # Class of committed instruction
system.cpu.commit.op_class_0::IntDiv            37728      0.65%     79.40% # Class of committed instruction
system.cpu.commit.op_class_0::FloatAdd           5961      0.10%     79.50% # Class of committed instruction
system.cpu.commit.op_class_0::FloatCmp              0      0.00%     79.50% # Class of committed instruction
system.cpu.commit.op_class_0::FloatCvt           1216      0.02%     79.53% # Class of committed instruction
system.cpu.commit.op_class_0::FloatMult             0      0.00%     79.53% # Class of committed instruction
system.cpu.commit.op_class_0::FloatMultAcc            0      0.00%     79.53% # Class of committed instruction
system.cpu.commit.op_class_0::FloatDiv              0      0.00%     79.53% # Class of committed instruction
system.cpu.commit.op_class_0::FloatMisc             0      0.00%     79.53% # Class of committed instruction
system.cpu.commit.op_class_0::FloatSqrt             0      0.00%     79.53% # Class of committed instruction
system.cpu.commit.op_class_0::SimdAdd            6262      0.11%     79.63% # Class of committed instruction
system.cpu.commit.op_class_0::SimdAddAcc            0      0.00%     79.63% # Class of committed instruction
system.cpu.commit.op_class_0::SimdAlu           23541      0.40%     80.04% # Class of committed instruction
system.cpu.commit.op_class_0::SimdCmp               0      0.00%     80.04% # Class of committed instruction
system.cpu.commit.op_class_0::SimdCvt           24504      0.42%     80.46% # Class of committed instruction
system.cpu.commit.op_class_0::SimdMisc          34220      0.59%     81.04% # Class of committed instruction
system.cpu.commit.op_class_0::SimdMult              0      0.00%     81.04% # Class of committed instruction
system.cpu.commit.op_class_0::SimdMultAcc            0      0.00%     81.04% # Class of committed instruction
system.cpu.commit.op_class_0::SimdShift          1162      0.02%     81.06% # Class of committed instruction
system.cpu.commit.op_class_0::SimdShiftAcc            0      0.00%     81.06% # Class of committed instruction
system.cpu.commit.op_class_0::SimdDiv               0      0.00%     81.06% # Class of committed instruction
system.cpu.commit.op_class_0::SimdSqrt              0      0.00%     81.06% # Class of committed instruction
system.cpu.commit.op_class_0::SimdFloatAdd            0      0.00%     81.06% # Class of committed instruction
system.cpu.commit.op_class_0::SimdFloatAlu            0      0.00%     81.06% # Class of committed instruction
system.cpu.commit.op_class_0::SimdFloatCmp            0      0.00%     81.06% # Class of committed instruction
system.cpu.commit.op_class_0::SimdFloatCvt            0      0.00%     81.06% # Class of committed instruction
system.cpu.commit.op_class_0::SimdFloatDiv            0      0.00%     81.06% # Class of committed instruction
system.cpu.commit.op_class_0::SimdFloatMisc            0      0.00%     81.06% # Class of committed instruction
system.cpu.commit.op_class_0::SimdFloatMult            0      0.00%     81.06% # Class of committed instruction
system.cpu.commit.op_class_0::SimdFloatMultAcc            0      0.00%     81.06% # Class of committed instruction
system.cpu.commit.op_class_0::SimdFloatSqrt            0      0.00%     81.06% # Class of committed instruction
system.cpu.commit.op_class_0::SimdReduceAdd            0      0.00%     81.06% # Class of committed instruction
system.cpu.commit.op_class_0::SimdReduceAlu            0      0.00%     81.06% # Class of committed instruction
system.cpu.commit.op_class_0::SimdReduceCmp            0      0.00%     81.06% # Class of committed instruction
system.cpu.commit.op_class_0::SimdFloatReduceAdd            0      0.00%     81.06% # Class of committed instruction
system.cpu.commit.op_class_0::SimdFloatReduceCmp            0      0.00%     81.06% # Class of committed instruction
system.cpu.commit.op_class_0::SimdAes               0      0.00%     81.06% # Class of committed instruction
system.cpu.commit.op_class_0::SimdAesMix            0      0.00%     81.06% # Class of committed instruction
system.cpu.commit.op_class_0::SimdSha1Hash            0      0.00%     81.06% # Class of committed instruction
system.cpu.commit.op_class_0::SimdSha1Hash2            0      0.00%     81.06% # Class of committed instruction
system.cpu.commit.op_class_0::SimdSha256Hash            0      0.00%     81.06% # Class of committed instruction
system.cpu.commit.op_class_0::SimdSha256Hash2            0      0.00%     81.06% # Class of committed instruction
system.cpu.commit.op_class_0::SimdShaSigma2            0      0.00%     81.06% # Class of committed instruction
system.cpu.commit.op_class_0::SimdShaSigma3            0      0.00%     81.06% # Class of committed instruction
system.cpu.commit.op_class_0::SimdPredAlu            0      0.00%     81.06% # Class of committed instruction
system.cpu.commit.op_class_0::MemRead          730575     12.53%     93.59% # Class of committed instruction
system.cpu.commit.op_class_0::MemWrite         332226      5.70%     99.29% # Class of committed instruction
system.cpu.commit.op_class_0::FloatMemRead        27462      0.47%     99.76% # Class of committed instruction
system.cpu.commit.op_class_0::FloatMemWrite        14159      0.24%    100.00% # Class of committed instruction
system.cpu.commit.op_class_0::IprAccess             0      0.00%    100.00% # Class of committed instruction
system.cpu.commit.op_class_0::InstPrefetch            0      0.00%    100.00% # Class of committed instruction
system.cpu.commit.op_class_0::total           5832165                       # Class of committed instruction
system.cpu.commit.refs                        1104422                       # Number of memory references committed
system.cpu.commit.swp_count                         0                       # Number of s/w prefetches committed
system.cpu.commit.vec_insts                         0                       # Number of committed Vector instructions.
system.cpu.committedInsts                     3237354                       # Number of Instructions Simulated
system.cpu.committedOps                       5832165                       # Number of Ops (including micro ops) Simulated
system.cpu.cpi                               1.136219                       # CPI: Cycles Per Instruction
system.cpu.cpi_total                         1.136219                       # CPI: Total CPI of All Threads
system.cpu.dcache.prefetcher.num_hwpf_issued         8050                       # number of hwpf issued
system.cpu.dcache.prefetcher.pfBufferHit        34197                       # number of redundant prefetches already in prefetch queue
system.cpu.dcache.prefetcher.pfIdentified        49572                       # number of prefetch candidates identified
system.cpu.dcache.prefetcher.pfInCache              0                       # number of redundant prefetches already in cache/mshr dropped
system.cpu.dcache.prefetcher.pfRemovedFull            0                       # number of prefetches dropped due to prefetch queue size
system.cpu.dcache.prefetcher.pfSpanPage          4508                       # number of prefetches that crossed the page
system.cpu.decode.BlockedCycles               1059132                       # Number of cycles decode is blocked
system.cpu.decode.DecodedInsts                7053453                       # Number of instructions handled by decode
system.cpu.decode.IdleCycles                   521379                       # Number of cycles decode is idle
system.cpu.decode.RunCycles                   1809699                       # Number of cycles decode is running
system.cpu.decode.SquashCycles                  27530                       # Number of cycles decode is squashing
system.cpu.decode.UnblockCycles                 95224                       # Number of cycles decode is unblocking
system.cpu.dtb.rdAccesses                      854156                       # TLB accesses on read requests
system.cpu.dtb.rdMisses                          1991                       # TLB misses on read requests
system.cpu.dtb.wrAccesses                      368530                       # TLB accesses on write requests
system.cpu.dtb.wrMisses                           171                       # TLB misses on write requests
system.cpu.fetch.Branches                      743805                       # Number of branches that fetch encountered
system.cpu.fetch.CacheLines                    450337                       # Number of cache lines fetched
system.cpu.fetch.Cycles                       2936153                       # Number of cycles fetch has run and was not squashing or blocked
system.cpu.fetch.IcacheSquashes                  5584                       # Number of outstanding Icache misses that were squashed
system.cpu.fetch.Insts                        4078769                       # Number of instructions fetch has processed
system.cpu.fetch.MiscStallCycles                  146                       # Number of cycles fetch has spent waiting on interrupts, or bad addresses, or out of MSHRs
system.cpu.fetch.PendingQuiesceStallCycles            6                       # Number of stall cycles due to pending quiesce instructions
system.cpu.fetch.PendingTrapStallCycles           706                       # Number of stall cycles due to pending traps
system.cpu.fetch.SquashCycles                   55060                       # Number of cycles fetch has spent squashing
system.cpu.fetch.branchRate                  0.202212                       # Number of branch fetches per cycle
system.cpu.fetch.icacheStallCycles             548423                       # Number of cycles fetch is stalled on an Icache miss
system.cpu.fetch.predictedBranches             390291                       # Number of branches that fetch has predicted taken
system.cpu.fetch.rate                        1.108860                       # Number of inst fetches per cycle
system.cpu.fetch.rateDist::samples            3512964                       # Number of instructions fetched each cycle (Total)
system.cpu.fetch.rateDist::mean              2.088934                       # Number of instructions fetched each cycle (Total)
system.cpu.fetch.rateDist::stdev             1.910319                       # Number of instructions fetched each cycle (Total)
system.cpu.fetch.rateDist::underflows               0      0.00%      0.00% # Number of instructions fetched each cycle (Total)
system.cpu.fetch.rateDist::0                  1483203     42.22%     42.22% # Number of instructions fetched each cycle (Total)
system.cpu.fetch.rateDist::1                   159403      4.54%     46.76% # Number of instructions fetched each cycle (Total)
system.cpu.fetch.rateDist::2                    90758      2.58%     49.34% # Number of instructions fetched each cycle (Total)
system.cpu.fetch.rateDist::3                   120968      3.44%     52.79% # Number of instructions fetched each cycle (Total)
system.cpu.fetch.rateDist::4                  1658632     47.21%    100.00% # Number of instructions fetched each cycle (Total)
system.cpu.fetch.rateDist::overflows                0      0.00%    100.00% # Number of instructions fetched each cycle (Total)
system.cpu.fetch.rateDist::min_value                0                       # Number of instructions fetched each cycle (Total)
system.cpu.fetch.rateDist::max_value                4                       # Number of instructions fetched each cycle (Total)
system.cpu.fetch.rateDist::total              3512964                       # Number of instructions fetched each cycle (Total)
system.cpu.fp_regfile_reads                    248899                       # number of floating regfile reads
system.cpu.fp_regfile_writes                   132943                       # number of floating regfile writes
system.cpu.fuPool.fu_ticks_busy::IntALU(0)    335333200                       # Total ticks fu was busy
system.cpu.fuPool.fu_ticks_busy::IntALU(1)    335333200                       # Total ticks fu was busy
system.cpu.fuPool.fu_ticks_busy::IntALU(2)    335333200                       # Total ticks fu was busy
system.cpu.fuPool.fu_ticks_busy::IntALU(3)    335332800                       # Total ticks fu was busy
system.cpu.fuPool.fu_ticks_busy::IntALU(4)    335332800                       # Total ticks fu was busy
system.cpu.fuPool.fu_ticks_busy::IntALU(5)    335332800                       # Total ticks fu was busy
system.cpu.fuPool.fu_ticks_busy::IntMultDiv(0)     11131200                       # Total ticks fu was busy
system.cpu.fuPool.fu_ticks_busy::IntMultDiv(1)     11130800                       # Total ticks fu was busy
system.cpu.fuPool.fu_ticks_busy::FP_ALU(0)       876800                       # Total ticks fu was busy
system.cpu.fuPool.fu_ticks_busy::FP_ALU(1)       876800                       # Total ticks fu was busy
system.cpu.fuPool.fu_ticks_busy::FP_ALU(2)       876000                       # Total ticks fu was busy
system.cpu.fuPool.fu_ticks_busy::FP_ALU(3)       876000                       # Total ticks fu was busy
system.cpu.fuPool.fu_ticks_busy::FP_MultDiv(0)            0                       # Total ticks fu was busy
system.cpu.fuPool.fu_ticks_busy::FP_MultDiv(1)            0                       # Total ticks fu was busy
system.cpu.fuPool.fu_ticks_busy::SIMD_Unit(0)      9588000                       # Total ticks fu was busy
system.cpu.fuPool.fu_ticks_busy::SIMD_Unit(1)      9751600                       # Total ticks fu was busy
system.cpu.fuPool.fu_ticks_busy::SIMD_Unit(2)      9712000                       # Total ticks fu was busy
system.cpu.fuPool.fu_ticks_busy::SIMD_Unit(3)      9956400                       # Total ticks fu was busy
system.cpu.fuPool.fu_ticks_busy::PredALU(0)            0                       # Total ticks fu was busy
system.cpu.fuPool.fu_ticks_busy::RdWrPort(0)    123558400                       # Total ticks fu was busy
system.cpu.fuPool.fu_ticks_busy::RdWrPort(1)    123714400                       # Total ticks fu was busy
system.cpu.fuPool.fu_ticks_busy::RdWrPort(2)    123591200                       # Total ticks fu was busy
system.cpu.fuPool.fu_ticks_busy::RdWrPort(3)    123662800                       # Total ticks fu was busy
system.cpu.fuPool.fu_ticks_busy::IprPort(0)            0                       # Total ticks fu was busy
system.cpu.fuPool.fu_ticks_busy::total     2571300400                       # Total ticks fu was busy
system.cpu.icache.prefetcher.num_hwpf_issued            0                       # number of hwpf issued
system.cpu.icache.prefetcher.pfBufferHit            0                       # number of redundant prefetches already in prefetch queue
system.cpu.icache.prefetcher.pfIdentified            0                       # number of prefetch candidates identified
system.cpu.icache.prefetcher.pfInCache              0                       # number of redundant prefetches already in cache/mshr dropped
system.cpu.icache.prefetcher.pfRemovedFull            0                       # number of prefetches dropped due to prefetch queue size
system.cpu.icache.prefetcher.pfSpanPage             0                       # number of prefetches that crossed the page
system.cpu.idleCycles                          165380                       # Total number of cycles that the CPU has spent unscheduled due to idling
system.cpu.iew.branchMispredicts                32347                       # Number of branch mispredicts detected at execute
system.cpu.iew.exec_branches                   619365                       # Number of branches executed
system.cpu.iew.exec_nop                             0                       # number of nop insts executed
system.cpu.iew.exec_rate                     1.746606                       # Inst execution rate
system.cpu.iew.exec_refs                      1221895                       # number of memory reference insts executed
system.cpu.iew.exec_stores                     368068                       # Number of stores executed
system.cpu.iew.exec_swp                             0                       # number of swp insts executed
system.cpu.iew.iewBlockCycles                  710247                       # Number of cycles IEW is blocking
system.cpu.iew.iewDispLoadInsts                890261                       # Number of dispatched load instructions
system.cpu.iew.iewDispNonSpecInsts                941                       # Number of dispatched non-speculative instructions
system.cpu.iew.iewDispSquashedInsts               617                       # Number of squashed instructions skipped by dispatch
system.cpu.iew.iewDispStoreInsts               381480                       # Number of dispatched store instructions
system.cpu.iew.iewDispatchedInsts             6816141                       # Number of instructions dispatched to IQ
system.cpu.iew.iewExecLoadInsts                853827                       # Number of load instructions executed
system.cpu.iew.iewExecSquashedInsts             38760                       # Number of squashed instructions skipped in execute
system.cpu.iew.iewExecutedInsts               6424617                       # Number of executed instructions
system.cpu.iew.iewIQFullEvents                   3323                       # Number of times the IQ has become full, causing a stall
system.cpu.iew.iewIdleCycles                        0                       # Number of cycles IEW is idle
system.cpu.iew.iewLSQFullEvents                 10503                       # Number of times the LSQ has become full, causing a stall
system.cpu.iew.iewSquashCycles                  27530                       # Number of cycles IEW is squashing
system.cpu.iew.iewUnblockCycles                 16695                       # Number of cycles IEW is unblocking
system.cpu.iew.lsq.thread0.blockedLoads             0                       # Number of blocked loads due to partial load-store forwarding
system.cpu.iew.lsq.thread0.cacheBlocked           619                       # Number of times an access to memory failed due to the cache being blocked
system.cpu.iew.lsq.thread0.forwLoads            55639                       # Number of loads that had data forwarded from stores
system.cpu.iew.lsq.thread0.ignoredResponses          279                       # Number of memory responses ignored because the instruction is squashed
system.cpu.iew.lsq.thread0.invAddrLoads             0                       # Number of loads ignored due to an invalid address
system.cpu.iew.lsq.thread0.invAddrSwpfs             0                       # Number of software prefetches ignored due to an invalid address
system.cpu.iew.lsq.thread0.memOrderViolation           95                       # Number of memory ordering violations
system.cpu.iew.lsq.thread0.rescheduledLoads           70                       # Number of loads that were rescheduled
system.cpu.iew.lsq.thread0.squashedLoads       132222                       # Number of loads squashed
system.cpu.iew.lsq.thread0.squashedStores        35094                       # Number of stores squashed
system.cpu.iew.memOrderViolationEvents             95                       # Number of memory order violations
system.cpu.iew.predictedNotTakenIncorrect        22623                       # Number of branches that were predicted not taken incorrectly
system.cpu.iew.predictedTakenIncorrect           9724                       # Number of branches that were predicted taken incorrectly
system.cpu.iew.wb_consumers                   8410568                       # num instructions consuming a value
system.cpu.iew.wb_count                       6401220                       # cumulative count of insts written-back
system.cpu.iew.wb_fanout                     0.583891                       # average fanout of values written-back
system.cpu.iew.wb_producers                   4910851                       # num instructions producing a value
system.cpu.iew.wb_rate                       1.740245                       # insts written-back per cycle
system.cpu.iew.wb_sent                        6408437                       # cumulative count of insts sent to commit
system.cpu.int_regfile_reads                  9851461                       # number of integer regfile reads
system.cpu.int_regfile_writes                 5364458                       # number of integer regfile writes
system.cpu.ipc                               0.880112                       # IPC: Instructions Per Cycle
system.cpu.ipc_total                         0.880112                       # IPC: Total IPC of All Threads
system.cpu.iq.FU_type_0::No_OpClass             35126      0.54%      0.54% # Type of FU issued
system.cpu.iq.FU_type_0::IntAlu               5029996     77.82%     78.37% # Type of FU issued
system.cpu.iq.FU_type_0::IntMult                14010      0.22%     78.58% # Type of FU issued
system.cpu.iq.FU_type_0::IntDiv                 41645      0.64%     79.23% # Type of FU issued
system.cpu.iq.FU_type_0::FloatAdd                7498      0.12%     79.34% # Type of FU issued
system.cpu.iq.FU_type_0::FloatCmp                   0      0.00%     79.34% # Type of FU issued
system.cpu.iq.FU_type_0::FloatCvt                1266      0.02%     79.36% # Type of FU issued
system.cpu.iq.FU_type_0::FloatMult                  0      0.00%     79.36% # Type of FU issued
system.cpu.iq.FU_type_0::FloatMultAcc               0      0.00%     79.36% # Type of FU issued
system.cpu.iq.FU_type_0::FloatDiv                   0      0.00%     79.36% # Type of FU issued
system.cpu.iq.FU_type_0::FloatMisc                  0      0.00%     79.36% # Type of FU issued
system.cpu.iq.FU_type_0::FloatSqrt                  0      0.00%     79.36% # Type of FU issued
system.cpu.iq.FU_type_0::SimdAdd                 6919      0.11%     79.47% # Type of FU issued
system.cpu.iq.FU_type_0::SimdAddAcc                 0      0.00%     79.47% # Type of FU issued
system.cpu.iq.FU_type_0::SimdAlu                27251      0.42%     79.89% # Type of FU issued
system.cpu.iq.FU_type_0::SimdCmp                    0      0.00%     79.89% # Type of FU issued
system.cpu.iq.FU_type_0::SimdCvt                26307      0.41%     80.30% # Type of FU issued
system.cpu.iq.FU_type_0::SimdMisc               34815      0.54%     80.84% # Type of FU issued
system.cpu.iq.FU_type_0::SimdMult                   0      0.00%     80.84% # Type of FU issued
system.cpu.iq.FU_type_0::SimdMultAcc                0      0.00%     80.84% # Type of FU issued
system.cpu.iq.FU_type_0::SimdShift               2228      0.03%     80.87% # Type of FU issued
system.cpu.iq.FU_type_0::SimdShiftAcc               0      0.00%     80.87% # Type of FU issued
system.cpu.iq.FU_type_0::SimdDiv                    0      0.00%     80.87% # Type of FU issued
system.cpu.iq.FU_type_0::SimdSqrt                   0      0.00%     80.87% # Type of FU issued
system.cpu.iq.FU_type_0::SimdFloatAdd               0      0.00%     80.87% # Type of FU issued
system.cpu.iq.FU_type_0::SimdFloatAlu               0      0.00%     80.87% # Type of FU issued
system.cpu.iq.FU_type_0::SimdFloatCmp               0      0.00%     80.87% # Type of FU issued
system.cpu.iq.FU_type_0::SimdFloatCvt               0      0.00%     80.87% # Type of FU issued
system.cpu.iq.FU_type_0::SimdFloatDiv               0      0.00%     80.87% # Type of FU issued
system.cpu.iq.FU_type_0::SimdFloatMisc              0      0.00%     80.87% # Type of FU issued
system.cpu.iq.FU_type_0::SimdFloatMult              0      0.00%     80.87% # Type of FU issued
system.cpu.iq.FU_type_0::SimdFloatMultAcc            0      0.00%     80.87% # Type of FU issued
system.cpu.iq.FU_type_0::SimdFloatSqrt              0      0.00%     80.87% # Type of FU issued
system.cpu.iq.FU_type_0::SimdReduceAdd              0      0.00%     80.87% # Type of FU issued
system.cpu.iq.FU_type_0::SimdReduceAlu              0      0.00%     80.87% # Type of FU issued
system.cpu.iq.FU_type_0::SimdReduceCmp              0      0.00%     80.87% # Type of FU issued
system.cpu.iq.FU_type_0::SimdFloatReduceAdd            0      0.00%     80.87% # Type of FU issued
system.cpu.iq.FU_type_0::SimdFloatReduceCmp            0      0.00%     80.87% # Type of FU issued
system.cpu.iq.FU_type_0::SimdAes                    0      0.00%     80.87% # Type of FU issued
system.cpu.iq.FU_type_0::SimdAesMix                 0      0.00%     80.87% # Type of FU issued
system.cpu.iq.FU_type_0::SimdSha1Hash               0      0.00%     80.87% # Type of FU issued
system.cpu.iq.FU_type_0::SimdSha1Hash2              0      0.00%     80.87% # Type of FU issued
system.cpu.iq.FU_type_0::SimdSha256Hash             0      0.00%     80.87% # Type of FU issued
system.cpu.iq.FU_type_0::SimdSha256Hash2            0      0.00%     80.87% # Type of FU issued
system.cpu.iq.FU_type_0::SimdShaSigma2              0      0.00%     80.87% # Type of FU issued
system.cpu.iq.FU_type_0::SimdShaSigma3              0      0.00%     80.87% # Type of FU issued
system.cpu.iq.FU_type_0::SimdPredAlu                0      0.00%     80.87% # Type of FU issued
system.cpu.iq.FU_type_0::MemRead               832041     12.87%     93.75% # Type of FU issued
system.cpu.iq.FU_type_0::MemWrite              355310      5.50%     99.24% # Type of FU issued
system.cpu.iq.FU_type_0::FloatMemRead           33416      0.52%     99.76% # Type of FU issued
system.cpu.iq.FU_type_0::FloatMemWrite          15552      0.24%    100.00% # Type of FU issued
system.cpu.iq.FU_type_0::IprAccess                  0      0.00%    100.00% # Type of FU issued
system.cpu.iq.FU_type_0::InstPrefetch               0      0.00%    100.00% # Type of FU issued
system.cpu.iq.FU_type_0::total                6463380                       # Type of FU issued
system.cpu.iq.fp_alu_accesses                  165485                       # Number of floating point alu accesses
system.cpu.iq.fp_inst_queue_reads              332278                       # Number of floating instruction queue reads
system.cpu.iq.fp_inst_queue_wakeup_accesses       162019                       # Number of floating instruction queue wakeup accesses
system.cpu.iq.fp_inst_queue_writes             206087                       # Number of floating instruction queue writes
system.cpu.iq.fu_busy_cnt                           0                       # FU busy when requested
system.cpu.iq.fu_busy_rate                          0                       # FU busy rate (busy events/executed inst)
system.cpu.iq.fu_full::No_OpClass                   0                       # attempts to use FU when none available
system.cpu.iq.fu_full::IntAlu                       0                       # attempts to use FU when none available
system.cpu.iq.fu_full::IntMult                      0                       # attempts to use FU when none available
system.cpu.iq.fu_full::IntDiv                       0                       # attempts to use FU when none available
system.cpu.iq.fu_full::FloatAdd                     0                       # attempts to use FU when none available
system.cpu.iq.fu_full::FloatCmp                     0                       # attempts to use FU when none available
system.cpu.iq.fu_full::FloatCvt                     0                       # attempts to use FU when none available
system.cpu.iq.fu_full::FloatMult                    0                       # attempts to use FU when none available
system.cpu.iq.fu_full::FloatMultAcc                 0                       # attempts to use FU when none available
system.cpu.iq.fu_full::FloatDiv                     0                       # attempts to use FU when none available
system.cpu.iq.fu_full::FloatMisc                    0                       # attempts to use FU when none available
system.cpu.iq.fu_full::FloatSqrt                    0                       # attempts to use FU when none available
system.cpu.iq.fu_full::SimdAdd                      0                       # attempts to use FU when none available
system.cpu.iq.fu_full::SimdAddAcc                   0                       # attempts to use FU when none available
system.cpu.iq.fu_full::SimdAlu                      0                       # attempts to use FU when none available
system.cpu.iq.fu_full::SimdCmp                      0                       # attempts to use FU when none available
system.cpu.iq.fu_full::SimdCvt                      0                       # attempts to use FU when none available
system.cpu.iq.fu_full::SimdMisc                     0                       # attempts to use FU when none available
system.cpu.iq.fu_full::SimdMult                     0                       # attempts to use FU when none available
system.cpu.iq.fu_full::SimdMultAcc                  0                       # attempts to use FU when none available
system.cpu.iq.fu_full::SimdShift                    0                       # attempts to use FU when none available
system.cpu.iq.fu_full::SimdShiftAcc                 0                       # attempts to use FU when none available
system.cpu.iq.fu_full::SimdDiv                      0                       # attempts to use FU when none available
system.cpu.iq.fu_full::SimdSqrt                     0                       # attempts to use FU when none available
system.cpu.iq.fu_full::SimdFloatAdd                 0                       # attempts to use FU when none available
system.cpu.iq.fu_full::SimdFloatAlu                 0                       # attempts to use FU when none available
system.cpu.iq.fu_full::SimdFloatCmp                 0                       # attempts to use FU when none available
system.cpu.iq.fu_full::SimdFloatCvt                 0                       # attempts to use FU when none available
system.cpu.iq.fu_full::SimdFloatDiv                 0                       # attempts to use FU when none available
system.cpu.iq.fu_full::SimdFloatMisc                0                       # attempts to use FU when none available
system.cpu.iq.fu_full::SimdFloatMult                0                       # attempts to use FU when none available
system.cpu.iq.fu_full::SimdFloatMultAcc             0                       # attempts to use FU when none available
system.cpu.iq.fu_full::SimdFloatSqrt                0                       # attempts to use FU when none available
system.cpu.iq.fu_full::SimdReduceAdd                0                       # attempts to use FU when none available
system.cpu.iq.fu_full::SimdReduceAlu                0                       # attempts to use FU when none available
system.cpu.iq.fu_full::SimdReduceCmp                0                       # attempts to use FU when none available
system.cpu.iq.fu_full::SimdFloatReduceAdd            0                       # attempts to use FU when none available
system.cpu.iq.fu_full::SimdFloatReduceCmp            0                       # attempts to use FU when none available
system.cpu.iq.fu_full::SimdAes                      0                       # attempts to use FU when none available
system.cpu.iq.fu_full::SimdAesMix                   0                       # attempts to use FU when none available
system.cpu.iq.fu_full::SimdSha1Hash                 0                       # attempts to use FU when none available
system.cpu.iq.fu_full::SimdSha1Hash2                0                       # attempts to use FU when none available
system.cpu.iq.fu_full::SimdSha256Hash               0                       # attempts to use FU when none available
system.cpu.iq.fu_full::SimdSha256Hash2              0                       # attempts to use FU when none available
system.cpu.iq.fu_full::SimdShaSigma2                0                       # attempts to use FU when none available
system.cpu.iq.fu_full::SimdShaSigma3                0                       # attempts to use FU when none available
system.cpu.iq.fu_full::SimdPredAlu                  0                       # attempts to use FU when none available
system.cpu.iq.fu_full::MemRead                      0                       # attempts to use FU when none available
system.cpu.iq.fu_full::MemWrite                     0                       # attempts to use FU when none available
system.cpu.iq.fu_full::FloatMemRead                 0                       # attempts to use FU when none available
system.cpu.iq.fu_full::FloatMemWrite                0                       # attempts to use FU when none available
system.cpu.iq.fu_full::IprAccess                    0                       # attempts to use FU when none available
system.cpu.iq.fu_full::InstPrefetch                 0                       # attempts to use FU when none available
system.cpu.iq.int_alu_accesses                6262769                       # Number of integer alu accesses
system.cpu.iq.int_inst_queue_reads           16128400                       # Number of integer instruction queue reads
system.cpu.iq.int_inst_queue_wakeup_accesses      6239201                       # Number of integer instruction queue wakeup accesses
system.cpu.iq.int_inst_queue_writes           7594112                       # Number of integer instruction queue writes
system.cpu.iq.iqInstsAdded                    6815019                       # Number of instructions added to the IQ (excludes non-spec)
system.cpu.iq.iqInstsIssued                   6463380                       # Number of instructions issued
system.cpu.iq.iqNonSpecInstsAdded                1122                       # Number of non-speculative instructions added to the IQ
system.cpu.iq.iqSquashedInstsExamined          983965                       # Number of squashed instructions iterated over during squash; mainly for profiling
system.cpu.iq.iqSquashedInstsIssued             20957                       # Number of squashed instructions issued
system.cpu.iq.iqSquashedNonSpecRemoved            377                       # Number of squashed non-spec instructions that were removed
system.cpu.iq.iqSquashedOperandsExamined      1456746                       # Number of squashed operands that are examined and possibly removed from graph
system.cpu.iq.issued_per_cycle::samples       3512964                       # Number of insts issued each cycle
system.cpu.iq.issued_per_cycle::mean         1.839865                       # Number of insts issued each cycle
system.cpu.iq.issued_per_cycle::stdev        1.634884                       # Number of insts issued each cycle
system.cpu.iq.issued_per_cycle::underflows            0      0.00%      0.00% # Number of insts issued each cycle
system.cpu.iq.issued_per_cycle::0             1274918     36.29%     36.29% # Number of insts issued each cycle
system.cpu.iq.issued_per_cycle::1              321516      9.15%     45.44% # Number of insts issued each cycle
system.cpu.iq.issued_per_cycle::2              482574     13.74%     59.18% # Number of insts issued each cycle
system.cpu.iq.issued_per_cycle::3              559108     15.92%     75.10% # Number of insts issued each cycle
system.cpu.iq.issued_per_cycle::4              874848     24.90%    100.00% # Number of insts issued each cycle
system.cpu.iq.issued_per_cycle::overflows            0      0.00%    100.00% # Number of insts issued each cycle
system.cpu.iq.issued_per_cycle::min_value            0                       # Number of insts issued each cycle
system.cpu.iq.issued_per_cycle::max_value            4                       # Number of insts issued each cycle
system.cpu.iq.issued_per_cycle::total         3512964                       # Number of insts issued each cycle
system.cpu.iq.rate                           1.757144                       # Inst issue rate
system.cpu.iq.vec_alu_accesses                      0                       # Number of vector alu accesses
system.cpu.iq.vec_inst_queue_reads                  0                       # Number of vector instruction queue reads
system.cpu.iq.vec_inst_queue_wakeup_accesses            0                       # Number of vector instruction queue wakeup accesses
system.cpu.iq.vec_inst_queue_writes                 0                       # Number of vector instruction queue writes
system.cpu.itb.rdAccesses                           0                       # TLB accesses on read requests
system.cpu.itb.rdMisses                             0                       # TLB misses on read requests
system.cpu.itb.wrAccesses                      450461                       # TLB accesses on write requests
system.cpu.itb.wrMisses                           377                       # TLB misses on write requests
system.cpu.memDep0.conflictingLoads             21714                       # Number of conflicting loads.
system.cpu.memDep0.conflictingStores             6553                       # Number of conflicting stores.
system.cpu.memDep0.insertedLoads               890261                       # Number of loads inserted to the mem dependence unit.
system.cpu.memDep0.insertedStores              381480                       # Number of stores inserted to the mem dependence unit.
system.cpu.misc_regfile_reads                 2506732                       # number of misc regfile reads
system.cpu.misc_regfile_writes                    684                       # number of misc regfile writes
system.cpu.numCycles                          3678344                       # number of cpu cycles simulated
system.cpu.numWorkItemsCompleted                    0                       # number of work items this cpu completed
system.cpu.numWorkItemsStarted                      0                       # number of work items this cpu started
system.cpu.process.numSyscalls                     60                       # Number of system calls
system.cpu.rename.BlockCycles                  861139                       # Number of cycles rename is blocking
system.cpu.rename.CommittedMaps               7515755                       # Number of HB maps that are committed
system.cpu.rename.FullRegisterEvents              132                       # Number of times there has been no free registers
system.cpu.rename.IQFullEvents                  51680                       # Number of times rename has blocked due to IQ full
system.cpu.rename.IdleCycles                   576112                       # Number of cycles rename is idle
system.cpu.rename.LQFullEvents                  17858                       # Number of times rename has blocked due to LQ full
system.cpu.rename.ROBFullEvents                  4733                       # Number of times rename has blocked due to ROB full
system.cpu.rename.RenameLookups              18090900                       # Number of register rename lookups that rename has made
system.cpu.rename.RenamedInsts                6972817                       # Number of instructions processed by rename
system.cpu.rename.RenamedOperands             9038613                       # Number of destination operands rename has renamed
system.cpu.rename.RunCycles                   1841022                       # Number of cycles rename is running
system.cpu.rename.SQFullEvents                  77568                       # Number of times rename has blocked due to SQ full
system.cpu.rename.SquashCycles                  27530                       # Number of cycles rename is squashing
system.cpu.rename.UnblockCycles                186877                       # Number of cycles rename is unblocking
system.cpu.rename.UndoneMaps                  1522835                       # Number of HB maps that are undone due to squashing
system.cpu.rename.fp_rename_lookups            283447                       # Number of floating rename lookups
system.cpu.rename.int_rename_lookups         10896824                       # Number of integer rename lookups
system.cpu.rename.serializeStallCycles          20284                       # count of cycles rename stalled for serializing inst
system.cpu.rename.serializingInsts                885                       # count of serializing insts renamed
system.cpu.rename.skidInsts                    221321                       # count of insts added to the skid buffer
system.cpu.rename.tempSerializingInsts            937                       # count of temporary serializing insts renamed
system.cpu.rob.rob_reads                      9111471                       # The number of ROB reads
system.cpu.rob.rob_writes                    13901239                       # The number of ROB writes
system.cpu.timesIdled                            1869                       # Number of times that the entire CPU went into an idle state and unscheduled itself
system.l2bus.snoop_filter.hit_multi_requests            9                       # Number of requests hitting in the snoop filter with multiple (>1) holders of the requested data.
system.l2bus.snoop_filter.hit_multi_snoops            0                       # Number of snoops hitting in the snoop filter with multiple (>1) holders of the requested data.
system.l2bus.snoop_filter.hit_single_requests        19336                       # Number of requests hitting in the snoop filter with a single holder of the requested data.
system.l2bus.snoop_filter.hit_single_snoops          437                       # Number of snoops hitting in the snoop filter with a single holder of the requested data.
system.l2bus.snoop_filter.tot_requests          39950                       # Total number of requests made to the snoop filter.
system.l2bus.snoop_filter.tot_snoops              437                       # Total number of snoops made to the snoop filter.
system.l2cache.prefetcher.num_hwpf_issued          779                       # number of hwpf issued
system.l2cache.prefetcher.pfBufferHit               0                       # number of redundant prefetches already in prefetch queue
system.l2cache.prefetcher.pfIdentified            779                       # number of prefetch candidates identified
system.l2cache.prefetcher.pfInCache                 0                       # number of redundant prefetches already in cache/mshr dropped
system.l2cache.prefetcher.pfRemovedFull             0                       # number of prefetches dropped due to prefetch queue size
system.l2cache.prefetcher.pfSpanPage              109                       # number of prefetches that crossed the page
system.membus.snoop_filter.hit_multi_requests            0                       # Number of requests hitting in the snoop filter with multiple (>1) holders of the requested data.
system.membus.snoop_filter.hit_multi_snoops            0                       # Number of snoops hitting in the snoop filter with multiple (>1) holders of the requested data.
system.membus.snoop_filter.hit_single_requests         9600                       # Number of requests hitting in the snoop filter with a single holder of the requested data.
system.membus.snoop_filter.hit_single_snoops            0                       # Number of snoops hitting in the snoop filter with a single holder of the requested data.
system.membus.snoop_filter.tot_requests         23321                       # Total number of requests made to the snoop filter.
system.membus.snoop_filter.tot_snoops               0                       # Total number of snoops made to the snoop filter.
system.membus.pwrStateResidencyTicks::UNDEFINED   1471337200                       # Cumulative time (in ticks) in various power states
system.membus.trans_dist::ReadResp              12235                       # Transaction distribution
system.membus.trans_dist::WritebackDirty         1342                       # Transaction distribution
system.membus.trans_dist::CleanEvict             8258                       # Transaction distribution
system.membus.trans_dist::ReadExReq              1486                       # Transaction distribution
system.membus.trans_dist::ReadExResp             1486                       # Transaction distribution
system.membus.trans_dist::ReadSharedReq         12235                       # Transaction distribution
system.membus.pkt_count_system.l2cache.mem_side::system.mem_ctrl.port        37042                       # Packet count per connected master and slave (bytes)
system.membus.pkt_count_system.l2cache.mem_side::total        37042                       # Packet count per connected master and slave (bytes)
system.membus.pkt_count::total                  37042                       # Packet count per connected master and slave (bytes)
system.membus.pkt_size_system.l2cache.mem_side::system.mem_ctrl.port       964032                       # Cumulative packet size per connected master and slave (bytes)
system.membus.pkt_size_system.l2cache.mem_side::total       964032                       # Cumulative packet size per connected master and slave (bytes)
system.membus.pkt_size::total                  964032                       # Cumulative packet size per connected master and slave (bytes)
system.membus.snoops                                0                       # Total snoops (count)
system.membus.snoopTraffic                          0                       # Total snoop traffic (bytes)
system.membus.snoop_fanout::samples             13721                       # Request fanout histogram
system.membus.snoop_fanout::mean                    0                       # Request fanout histogram
system.membus.snoop_fanout::stdev                   0                       # Request fanout histogram
system.membus.snoop_fanout::underflows              0      0.00%      0.00% # Request fanout histogram
system.membus.snoop_fanout::0                   13721    100.00%    100.00% # Request fanout histogram
system.membus.snoop_fanout::1                       0      0.00%    100.00% # Request fanout histogram
system.membus.snoop_fanout::overflows               0      0.00%    100.00% # Request fanout histogram
system.membus.snoop_fanout::min_value               0                       # Request fanout histogram
system.membus.snoop_fanout::max_value               0                       # Request fanout histogram
system.membus.snoop_fanout::total               13721                       # Request fanout histogram
system.membus.reqLayer2.occupancy            11510447                       # Layer occupancy (ticks)
system.membus.reqLayer2.utilization               0.8                       # Layer utilization (%)
system.membus.respLayer0.occupancy           29739853                       # Layer occupancy (ticks)
system.membus.respLayer0.utilization              2.0                       # Layer utilization (%)
system.l2bus.pwrStateResidencyTicks::UNDEFINED   1471337200                       # Cumulative time (in ticks) in various power states
system.l2bus.trans_dist::ReadResp               18366                       # Transaction distribution
system.l2bus.trans_dist::WritebackDirty          4168                       # Transaction distribution
system.l2bus.trans_dist::CleanEvict             24848                       # Transaction distribution
system.l2bus.trans_dist::HardPFReq               1076                       # Transaction distribution
system.l2bus.trans_dist::ReadExReq               2249                       # Transaction distribution
system.l2bus.trans_dist::ReadExResp              2249                       # Transaction distribution
system.l2bus.trans_dist::ReadSharedReq          18366                       # Transaction distribution
system.l2bus.pkt_count_system.cpu.icache.mem_side::system.l2cache.cpu_side        10047                       # Packet count per connected master and slave (bytes)
system.l2bus.pkt_count_system.cpu.dcache.mem_side::system.l2cache.cpu_side        50516                       # Packet count per connected master and slave (bytes)
system.l2bus.pkt_count::total                   60563                       # Packet count per connected master and slave (bytes)
system.l2bus.pkt_size_system.cpu.icache.mem_side::system.l2cache.cpu_side       219712                       # Cumulative packet size per connected master and slave (bytes)
system.l2bus.pkt_size_system.cpu.dcache.mem_side::system.l2cache.cpu_side      1280384                       # Cumulative packet size per connected master and slave (bytes)
system.l2bus.pkt_size::total                  1500096                       # Cumulative packet size per connected master and slave (bytes)
system.l2bus.snoops                             10759                       # Total snoops (count)
system.l2bus.snoopTraffic                       86016                       # Total snoop traffic (bytes)
system.l2bus.snoop_fanout::samples              31372                       # Request fanout histogram
system.l2bus.snoop_fanout::mean              0.014248                       # Request fanout histogram
system.l2bus.snoop_fanout::stdev             0.118515                       # Request fanout histogram
system.l2bus.snoop_fanout::underflows               0      0.00%      0.00% # Request fanout histogram
system.l2bus.snoop_fanout::0                    30925     98.58%     98.58% # Request fanout histogram
system.l2bus.snoop_fanout::1                      447      1.42%    100.00% # Request fanout histogram
system.l2bus.snoop_fanout::2                        0      0.00%    100.00% # Request fanout histogram
system.l2bus.snoop_fanout::overflows                0      0.00%    100.00% # Request fanout histogram
system.l2bus.snoop_fanout::min_value                0                       # Request fanout histogram
system.l2bus.snoop_fanout::max_value                1                       # Request fanout histogram
system.l2bus.snoop_fanout::total                31372                       # Request fanout histogram
system.l2bus.respLayer1.occupancy            20616399                       # Layer occupancy (ticks)
system.l2bus.respLayer1.utilization               1.4                       # Layer utilization (%)
system.l2bus.reqLayer0.occupancy             19682223                       # Layer occupancy (ticks)
system.l2bus.reqLayer0.utilization                1.3                       # Layer utilization (%)
system.l2bus.respLayer0.occupancy             4122399                       # Layer occupancy (ticks)
system.l2bus.respLayer0.utilization               0.3                       # Layer utilization (%)
system.clk_domain.clock                           400                       # Clock period in ticks
system.clk_domain.voltage_domain.voltage            1                       # Voltage in Volts
system.cpu.pwrStateResidencyTicks::ON      1471337200                       # Cumulative time (in ticks) in various power states
system.cpu.icache.pwrStateResidencyTicks::UNDEFINED   1471337200                       # Cumulative time (in ticks) in various power states
system.cpu.icache.demand_hits::.cpu.inst       446197                       # number of demand (read+write) hits
system.cpu.icache.demand_hits::total           446197                       # number of demand (read+write) hits
system.cpu.icache.overall_hits::.cpu.inst       446197                       # number of overall hits
system.cpu.icache.overall_hits::total          446197                       # number of overall hits
system.cpu.icache.demand_misses::.cpu.inst         4139                       # number of demand (read+write) misses
system.cpu.icache.demand_misses::total           4139                       # number of demand (read+write) misses
system.cpu.icache.overall_misses::.cpu.inst         4139                       # number of overall misses
system.cpu.icache.overall_misses::total          4139                       # number of overall misses
system.cpu.icache.demand_miss_latency::.cpu.inst    184335200                       # number of demand (read+write) miss cycles
system.cpu.icache.demand_miss_latency::total    184335200                       # number of demand (read+write) miss cycles
system.cpu.icache.overall_miss_latency::.cpu.inst    184335200                       # number of overall miss cycles
system.cpu.icache.overall_miss_latency::total    184335200                       # number of overall miss cycles
system.cpu.icache.demand_accesses::.cpu.inst       450336                       # number of demand (read+write) accesses
system.cpu.icache.demand_accesses::total       450336                       # number of demand (read+write) accesses
system.cpu.icache.overall_accesses::.cpu.inst       450336                       # number of overall (read+write) accesses
system.cpu.icache.overall_accesses::total       450336                       # number of overall (read+write) accesses
system.cpu.icache.demand_miss_rate::.cpu.inst     0.009191                       # miss rate for demand accesses
system.cpu.icache.demand_miss_rate::total     0.009191                       # miss rate for demand accesses
system.cpu.icache.overall_miss_rate::.cpu.inst     0.009191                       # miss rate for overall accesses
system.cpu.icache.overall_miss_rate::total     0.009191                       # miss rate for overall accesses
system.cpu.icache.demand_avg_miss_latency::.cpu.inst 44536.168157                       # average overall miss latency
system.cpu.icache.demand_avg_miss_latency::total 44536.168157                       # average overall miss latency
system.cpu.icache.overall_avg_miss_latency::.cpu.inst 44536.168157                       # average overall miss latency
system.cpu.icache.overall_avg_miss_latency::total 44536.168157                       # average overall miss latency
system.cpu.icache.blocked_cycles::no_mshrs          446                       # number of cycles access was blocked
system.cpu.icache.blocked_cycles::no_targets            0                       # number of cycles access was blocked
system.cpu.icache.blocked::no_mshrs                 4                       # number of cycles access was blocked
system.cpu.icache.blocked::no_targets               0                       # number of cycles access was blocked
system.cpu.icache.avg_blocked_cycles::no_mshrs   111.500000                       # average number of cycles each access was blocked
system.cpu.icache.avg_blocked_cycles::no_targets          nan                       # average number of cycles each access was blocked
system.cpu.icache.demand_mshr_hits::.cpu.inst          704                       # number of demand (read+write) MSHR hits
system.cpu.icache.demand_mshr_hits::total          704                       # number of demand (read+write) MSHR hits
system.cpu.icache.overall_mshr_hits::.cpu.inst          704                       # number of overall MSHR hits
system.cpu.icache.overall_mshr_hits::total          704                       # number of overall MSHR hits
system.cpu.icache.demand_mshr_misses::.cpu.inst         3435                       # number of demand (read+write) MSHR misses
system.cpu.icache.demand_mshr_misses::total         3435                       # number of demand (read+write) MSHR misses
system.cpu.icache.overall_mshr_misses::.cpu.inst         3435                       # number of overall MSHR misses
system.cpu.icache.overall_mshr_misses::total         3435                       # number of overall MSHR misses
system.cpu.icache.demand_mshr_miss_latency::.cpu.inst    149327200                       # number of demand (read+write) MSHR miss cycles
system.cpu.icache.demand_mshr_miss_latency::total    149327200                       # number of demand (read+write) MSHR miss cycles
system.cpu.icache.overall_mshr_miss_latency::.cpu.inst    149327200                       # number of overall MSHR miss cycles
system.cpu.icache.overall_mshr_miss_latency::total    149327200                       # number of overall MSHR miss cycles
system.cpu.icache.demand_mshr_miss_rate::.cpu.inst     0.007628                       # mshr miss rate for demand accesses
system.cpu.icache.demand_mshr_miss_rate::total     0.007628                       # mshr miss rate for demand accesses
system.cpu.icache.overall_mshr_miss_rate::.cpu.inst     0.007628                       # mshr miss rate for overall accesses
system.cpu.icache.overall_mshr_miss_rate::total     0.007628                       # mshr miss rate for overall accesses
system.cpu.icache.demand_avg_mshr_miss_latency::.cpu.inst 43472.256186                       # average overall mshr miss latency
system.cpu.icache.demand_avg_mshr_miss_latency::total 43472.256186                       # average overall mshr miss latency
system.cpu.icache.overall_avg_mshr_miss_latency::.cpu.inst 43472.256186                       # average overall mshr miss latency
system.cpu.icache.overall_avg_mshr_miss_latency::total 43472.256186                       # average overall mshr miss latency
system.cpu.icache.replacements                   3179                       # number of replacements
system.cpu.icache.ReadReq_hits::.cpu.inst       446197                       # number of ReadReq hits
system.cpu.icache.ReadReq_hits::total          446197                       # number of ReadReq hits
system.cpu.icache.ReadReq_misses::.cpu.inst         4139                       # number of ReadReq misses
system.cpu.icache.ReadReq_misses::total          4139                       # number of ReadReq misses
system.cpu.icache.ReadReq_miss_latency::.cpu.inst    184335200                       # number of ReadReq miss cycles
system.cpu.icache.ReadReq_miss_latency::total    184335200                       # number of ReadReq miss cycles
system.cpu.icache.ReadReq_accesses::.cpu.inst       450336                       # number of ReadReq accesses(hits+misses)
system.cpu.icache.ReadReq_accesses::total       450336                       # number of ReadReq accesses(hits+misses)
system.cpu.icache.ReadReq_miss_rate::.cpu.inst     0.009191                       # miss rate for ReadReq accesses
system.cpu.icache.ReadReq_miss_rate::total     0.009191                       # miss rate for ReadReq accesses
system.cpu.icache.ReadReq_avg_miss_latency::.cpu.inst 44536.168157                       # average ReadReq miss latency
system.cpu.icache.ReadReq_avg_miss_latency::total 44536.168157                       # average ReadReq miss latency
system.cpu.icache.ReadReq_mshr_hits::.cpu.inst          704                       # number of ReadReq MSHR hits
system.cpu.icache.ReadReq_mshr_hits::total          704                       # number of ReadReq MSHR hits
system.cpu.icache.ReadReq_mshr_misses::.cpu.inst         3435                       # number of ReadReq MSHR misses
system.cpu.icache.ReadReq_mshr_misses::total         3435                       # number of ReadReq MSHR misses
system.cpu.icache.ReadReq_mshr_miss_latency::.cpu.inst    149327200                       # number of ReadReq MSHR miss cycles
system.cpu.icache.ReadReq_mshr_miss_latency::total    149327200                       # number of ReadReq MSHR miss cycles
system.cpu.icache.ReadReq_mshr_miss_rate::.cpu.inst     0.007628                       # mshr miss rate for ReadReq accesses
system.cpu.icache.ReadReq_mshr_miss_rate::total     0.007628                       # mshr miss rate for ReadReq accesses
system.cpu.icache.ReadReq_avg_mshr_miss_latency::.cpu.inst 43472.256186                       # average ReadReq mshr miss latency
system.cpu.icache.ReadReq_avg_mshr_miss_latency::total 43472.256186                       # average ReadReq mshr miss latency
system.cpu.icache.prefetcher.pwrStateResidencyTicks::UNDEFINED   1471337200                       # Cumulative time (in ticks) in various power states
system.cpu.icache.tags.pwrStateResidencyTicks::UNDEFINED   1471337200                       # Cumulative time (in ticks) in various power states
system.cpu.icache.tags.tagsinuse           254.112893                       # Cycle average of tags in use
system.cpu.icache.tags.total_refs              335516                       # Total number of references to valid blocks.
system.cpu.icache.tags.sampled_refs              3179                       # Sample count of references to valid blocks.
system.cpu.icache.tags.avg_refs            105.541365                       # Average number of references to valid blocks.
system.cpu.icache.tags.warmup_cycle             66400                       # Cycle when the warmup percentage was hit.
system.cpu.icache.tags.occ_blocks::.cpu.inst   254.112893                       # Average occupied blocks per requestor
system.cpu.icache.tags.occ_percent::.cpu.inst     0.992628                       # Average percentage of cache occupancy
system.cpu.icache.tags.occ_percent::total     0.992628                       # Average percentage of cache occupancy
system.cpu.icache.tags.occ_task_id_blocks::1024          256                       # Occupied blocks per task id
system.cpu.icache.tags.age_task_id_blocks_1024::0           99                       # Occupied blocks per task id
system.cpu.icache.tags.age_task_id_blocks_1024::1            6                       # Occupied blocks per task id
system.cpu.icache.tags.age_task_id_blocks_1024::2          148                       # Occupied blocks per task id
system.cpu.icache.tags.age_task_id_blocks_1024::3            3                       # Occupied blocks per task id
system.cpu.icache.tags.occ_task_id_percent::1024            1                       # Percentage of cache occupancy per task id
system.cpu.icache.tags.tag_accesses            904107                       # Number of tag accesses
system.cpu.icache.tags.data_accesses           904107                       # Number of data accesses
system.cpu.dtb.walker.pwrStateResidencyTicks::UNDEFINED   1471337200                       # Cumulative time (in ticks) in various power states
system.cpu.interrupts.clk_domain.clock           6400                       # Clock period in ticks
system.cpu.itb.walker.pwrStateResidencyTicks::UNDEFINED   1471337200                       # Cumulative time (in ticks) in various power states
system.cpu.dcache.pwrStateResidencyTicks::UNDEFINED   1471337200                       # Cumulative time (in ticks) in various power states
system.cpu.dcache.demand_hits::.cpu.data      1109152                       # number of demand (read+write) hits
system.cpu.dcache.demand_hits::total          1109152                       # number of demand (read+write) hits
system.cpu.dcache.overall_hits::.cpu.data      1109152                       # number of overall hits
system.cpu.dcache.overall_hits::total         1109152                       # number of overall hits
system.cpu.dcache.demand_misses::.cpu.data        35040                       # number of demand (read+write) misses
system.cpu.dcache.demand_misses::total          35040                       # number of demand (read+write) misses
system.cpu.dcache.overall_misses::.cpu.data        35040                       # number of overall misses
system.cpu.dcache.overall_misses::total         35040                       # number of overall misses
system.cpu.dcache.demand_miss_latency::.cpu.data   1687130400                       # number of demand (read+write) miss cycles
system.cpu.dcache.demand_miss_latency::total   1687130400                       # number of demand (read+write) miss cycles
system.cpu.dcache.overall_miss_latency::.cpu.data   1687130400                       # number of overall miss cycles
system.cpu.dcache.overall_miss_latency::total   1687130400                       # number of overall miss cycles
system.cpu.dcache.demand_accesses::.cpu.data      1144192                       # number of demand (read+write) accesses
system.cpu.dcache.demand_accesses::total      1144192                       # number of demand (read+write) accesses
system.cpu.dcache.overall_accesses::.cpu.data      1144192                       # number of overall (read+write) accesses
system.cpu.dcache.overall_accesses::total      1144192                       # number of overall (read+write) accesses
system.cpu.dcache.demand_miss_rate::.cpu.data     0.030624                       # miss rate for demand accesses
system.cpu.dcache.demand_miss_rate::total     0.030624                       # miss rate for demand accesses
system.cpu.dcache.overall_miss_rate::.cpu.data     0.030624                       # miss rate for overall accesses
system.cpu.dcache.overall_miss_rate::total     0.030624                       # miss rate for overall accesses
system.cpu.dcache.demand_avg_miss_latency::.cpu.data 48148.698630                       # average overall miss latency
system.cpu.dcache.demand_avg_miss_latency::total 48148.698630                       # average overall miss latency
system.cpu.dcache.overall_avg_miss_latency::.cpu.data 48148.698630                       # average overall miss latency
system.cpu.dcache.overall_avg_miss_latency::total 48148.698630                       # average overall miss latency
system.cpu.dcache.blocked_cycles::no_mshrs        29220                       # number of cycles access was blocked
system.cpu.dcache.blocked_cycles::no_targets          138                       # number of cycles access was blocked
system.cpu.dcache.blocked::no_mshrs               772                       # number of cycles access was blocked
system.cpu.dcache.blocked::no_targets               1                       # number of cycles access was blocked
system.cpu.dcache.avg_blocked_cycles::no_mshrs    37.849741                       # average number of cycles each access was blocked
system.cpu.dcache.avg_blocked_cycles::no_targets          138                       # average number of cycles each access was blocked
system.cpu.dcache.unused_prefetches              1843                       # number of HardPF blocks evicted w/o reference
system.cpu.dcache.writebacks::.writebacks         2826                       # number of writebacks
system.cpu.dcache.writebacks::total              2826                       # number of writebacks
system.cpu.dcache.demand_mshr_hits::.cpu.data        22239                       # number of demand (read+write) MSHR hits
system.cpu.dcache.demand_mshr_hits::total        22239                       # number of demand (read+write) MSHR hits
system.cpu.dcache.overall_mshr_hits::.cpu.data        22239                       # number of overall MSHR hits
system.cpu.dcache.overall_mshr_hits::total        22239                       # number of overall MSHR hits
system.cpu.dcache.demand_mshr_misses::.cpu.data        12801                       # number of demand (read+write) MSHR misses
system.cpu.dcache.demand_mshr_misses::total        12801                       # number of demand (read+write) MSHR misses
system.cpu.dcache.overall_mshr_misses::.cpu.data        12801                       # number of overall MSHR misses
system.cpu.dcache.overall_mshr_misses::.cpu.dcache.prefetcher         4379                       # number of overall MSHR misses
system.cpu.dcache.overall_mshr_misses::total        17180                       # number of overall MSHR misses
system.cpu.dcache.demand_mshr_miss_latency::.cpu.data    588336800                       # number of demand (read+write) MSHR miss cycles
system.cpu.dcache.demand_mshr_miss_latency::total    588336800                       # number of demand (read+write) MSHR miss cycles
system.cpu.dcache.overall_mshr_miss_latency::.cpu.data    588336800                       # number of overall MSHR miss cycles
system.cpu.dcache.overall_mshr_miss_latency::.cpu.dcache.prefetcher    244944894                       # number of overall MSHR miss cycles
system.cpu.dcache.overall_mshr_miss_latency::total    833281694                       # number of overall MSHR miss cycles
system.cpu.dcache.demand_mshr_miss_rate::.cpu.data     0.011188                       # mshr miss rate for demand accesses
system.cpu.dcache.demand_mshr_miss_rate::total     0.011188                       # mshr miss rate for demand accesses
system.cpu.dcache.overall_mshr_miss_rate::.cpu.data     0.011188                       # mshr miss rate for overall accesses
system.cpu.dcache.overall_mshr_miss_rate::.cpu.dcache.prefetcher          inf                       # mshr miss rate for overall accesses
system.cpu.dcache.overall_mshr_miss_rate::total     0.015015                       # mshr miss rate for overall accesses
system.cpu.dcache.demand_avg_mshr_miss_latency::.cpu.data 45960.221858                       # average overall mshr miss latency
system.cpu.dcache.demand_avg_mshr_miss_latency::total 45960.221858                       # average overall mshr miss latency
system.cpu.dcache.overall_avg_mshr_miss_latency::.cpu.data 45960.221858                       # average overall mshr miss latency
system.cpu.dcache.overall_avg_mshr_miss_latency::.cpu.dcache.prefetcher 55936.262617                       # average overall mshr miss latency
system.cpu.dcache.overall_avg_mshr_miss_latency::total 48503.008964                       # average overall mshr miss latency
system.cpu.dcache.replacements                  16156                       # number of replacements
system.cpu.dcache.ReadReq_hits::.cpu.data       764589                       # number of ReadReq hits
system.cpu.dcache.ReadReq_hits::total          764589                       # number of ReadReq hits
system.cpu.dcache.ReadReq_misses::.cpu.data        32757                       # number of ReadReq misses
system.cpu.dcache.ReadReq_misses::total         32757                       # number of ReadReq misses
system.cpu.dcache.ReadReq_miss_latency::.cpu.data   1572061600                       # number of ReadReq miss cycles
system.cpu.dcache.ReadReq_miss_latency::total   1572061600                       # number of ReadReq miss cycles
system.cpu.dcache.ReadReq_accesses::.cpu.data       797346                       # number of ReadReq accesses(hits+misses)
system.cpu.dcache.ReadReq_accesses::total       797346                       # number of ReadReq accesses(hits+misses)
system.cpu.dcache.ReadReq_miss_rate::.cpu.data     0.041083                       # miss rate for ReadReq accesses
system.cpu.dcache.ReadReq_miss_rate::total     0.041083                       # miss rate for ReadReq accesses
system.cpu.dcache.ReadReq_avg_miss_latency::.cpu.data 47991.623165                       # average ReadReq miss latency
system.cpu.dcache.ReadReq_avg_miss_latency::total 47991.623165                       # average ReadReq miss latency
system.cpu.dcache.ReadReq_mshr_hits::.cpu.data        22205                       # number of ReadReq MSHR hits
system.cpu.dcache.ReadReq_mshr_hits::total        22205                       # number of ReadReq MSHR hits
system.cpu.dcache.ReadReq_mshr_misses::.cpu.data        10552                       # number of ReadReq MSHR misses
system.cpu.dcache.ReadReq_mshr_misses::total        10552                       # number of ReadReq MSHR misses
system.cpu.dcache.ReadReq_mshr_miss_latency::.cpu.data    476284400                       # number of ReadReq MSHR miss cycles
system.cpu.dcache.ReadReq_mshr_miss_latency::total    476284400                       # number of ReadReq MSHR miss cycles
system.cpu.dcache.ReadReq_mshr_miss_rate::.cpu.data     0.013234                       # mshr miss rate for ReadReq accesses
system.cpu.dcache.ReadReq_mshr_miss_rate::total     0.013234                       # mshr miss rate for ReadReq accesses
system.cpu.dcache.ReadReq_avg_mshr_miss_latency::.cpu.data 45136.884003                       # average ReadReq mshr miss latency
system.cpu.dcache.ReadReq_avg_mshr_miss_latency::total 45136.884003                       # average ReadReq mshr miss latency
system.cpu.dcache.WriteReq_hits::.cpu.data       344563                       # number of WriteReq hits
system.cpu.dcache.WriteReq_hits::total         344563                       # number of WriteReq hits
system.cpu.dcache.WriteReq_misses::.cpu.data         2283                       # number of WriteReq misses
system.cpu.dcache.WriteReq_misses::total         2283                       # number of WriteReq misses
system.cpu.dcache.WriteReq_miss_latency::.cpu.data    115068800                       # number of WriteReq miss cycles
system.cpu.dcache.WriteReq_miss_latency::total    115068800                       # number of WriteReq miss cycles
system.cpu.dcache.WriteReq_accesses::.cpu.data       346846                       # number of WriteReq accesses(hits+misses)
system.cpu.dcache.WriteReq_accesses::total       346846                       # number of WriteReq accesses(hits+misses)
system.cpu.dcache.WriteReq_miss_rate::.cpu.data     0.006582                       # miss rate for WriteReq accesses
system.cpu.dcache.WriteReq_miss_rate::total     0.006582                       # miss rate for WriteReq accesses
system.cpu.dcache.WriteReq_avg_miss_latency::.cpu.data 50402.452913                       # average WriteReq miss latency
system.cpu.dcache.WriteReq_avg_miss_latency::total 50402.452913                       # average WriteReq miss latency
system.cpu.dcache.WriteReq_mshr_hits::.cpu.data           34                       # number of WriteReq MSHR hits
system.cpu.dcache.WriteReq_mshr_hits::total           34                       # number of WriteReq MSHR hits
system.cpu.dcache.WriteReq_mshr_misses::.cpu.data         2249                       # number of WriteReq MSHR misses
system.cpu.dcache.WriteReq_mshr_misses::total         2249                       # number of WriteReq MSHR misses
system.cpu.dcache.WriteReq_mshr_miss_latency::.cpu.data    112052400                       # number of WriteReq MSHR miss cycles
[...]
system.l2cache.overall_mshr_miss_latency::total     25854355                       # number of overall MSHR miss cycles
system.l2cache.demand_mshr_miss_rate::.cpu.inst     0.434932                       # mshr miss rate for demand accesses
system.l2cache.demand_mshr_miss_rate::.cpu.data     0.422360                       # mshr miss rate for demand accesses
system.l2cache.demand_mshr_miss_rate::.cpu.dcache.prefetcher     0.725806                       # mshr miss rate for demand accesses
system.l2cache.demand_mshr_miss_rate::total     0.449380                       # mshr miss rate for demand accesses
system.l2cache.overall_mshr_miss_rate::.cpu.inst     0.434932                       # mshr miss rate for overall accesses
system.l2cache.overall_mshr_miss_rate::.cpu.data     0.422360                       # mshr miss rate for overall accesses
system.l2cache.overall_mshr_miss_rate::.cpu.dcache.prefetcher     0.725806                       # mshr miss rate for overall accesses
system.l2cache.overall_mshr_miss_rate::.l2cache.prefetcher          inf                       # mshr miss rate for overall accesses
system.l2cache.overall_mshr_miss_rate::total     0.451446                       # mshr miss rate for overall accesses
system.l2cache.demand_avg_mshr_miss_latency::.cpu.inst 58633.070866                       # average overall mshr miss latency
system.l2cache.demand_avg_mshr_miss_latency::.cpu.data 58473.529412                       # average overall mshr miss latency
system.l2cache.demand_avg_mshr_miss_latency::.cpu.dcache.prefetcher 64319.066667                       # average overall mshr miss latency
system.l2cache.demand_avg_mshr_miss_latency::total 59171.397701                       # average overall mshr miss latency
system.l2cache.overall_avg_mshr_miss_latency::.cpu.inst 58633.070866                       # average overall mshr miss latency
system.l2cache.overall_avg_mshr_miss_latency::.cpu.data 58473.529412                       # average overall mshr miss latency
system.l2cache.overall_avg_mshr_miss_latency::.cpu.dcache.prefetcher 64319.066667                       # average overall mshr miss latency
system.l2cache.overall_avg_mshr_miss_latency::.l2cache.prefetcher 57398.500000                       # average overall mshr miss latency
system.l2cache.overall_avg_mshr_miss_latency::total 59163.283753                       # average overall mshr miss latency
system.l2cache.replacements                       447                       # number of replacements
system.l2cache.WritebackDirty_hits::.writebacks          167                       # number of WritebackDirty hits
system.l2cache.WritebackDirty_hits::total          167                       # number of WritebackDirty hits
system.l2cache.WritebackDirty_accesses::.writebacks          167                       # number of WritebackDirty accesses(hits+misses)
system.l2cache.WritebackDirty_accesses::total          167                       # number of WritebackDirty accesses(hits+misses)
system.l2cache.CleanEvict_mshr_misses::.writebacks           10                       # number of CleanEvict MSHR misses
system.l2cache.CleanEvict_mshr_misses::total           10                       # number of CleanEvict MSHR misses
system.l2cache.CleanEvict_mshr_miss_rate::.writebacks          inf                       # mshr miss rate for CleanEvict accesses
system.l2cache.CleanEvict_mshr_miss_rate::total          inf                       # mshr miss rate for CleanEvict accesses
system.l2cache.HardPFReq_mshr_misses::.l2cache.prefetcher            2                       # number of HardPFReq MSHR misses
system.l2cache.HardPFReq_mshr_misses::total            2                       # number of HardPFReq MSHR misses
system.l2cache.HardPFReq_mshr_miss_latency::.l2cache.prefetcher       114797                       # number of HardPFReq MSHR miss cycles
system.l2cache.HardPFReq_mshr_miss_latency::total       114797                       # number of HardPFReq MSHR miss cycles
system.l2cache.HardPFReq_mshr_miss_rate::.l2cache.prefetcher          inf                       # mshr miss rate for HardPFReq accesses
system.l2cache.HardPFReq_mshr_miss_rate::total          inf                       # mshr miss rate for HardPFReq accesses
system.l2cache.HardPFReq_avg_mshr_miss_latency::.l2cache.prefetcher 57398.500000                       # average HardPFReq mshr miss latency
system.l2cache.HardPFReq_avg_mshr_miss_latency::total 57398.500000                       # average HardPFReq mshr miss latency
system.l2cache.ReadExReq_hits::.cpu.data           44                       # number of ReadExReq hits
system.l2cache.ReadExReq_hits::total               44                       # number of ReadExReq hits
system.l2cache.ReadExReq_misses::.cpu.data           19                       # number of ReadExReq misses
system.l2cache.ReadExReq_misses::total             19                       # number of ReadExReq misses
system.l2cache.ReadExReq_miss_latency::.cpu.data      1387600                       # number of ReadExReq miss cycles
system.l2cache.ReadExReq_miss_latency::total      1387600                       # number of ReadExReq miss cycles
system.l2cache.ReadExReq_accesses::.cpu.data           63                       # number of ReadExReq accesses(hits+misses)
system.l2cache.ReadExReq_accesses::total           63                       # number of ReadExReq accesses(hits+misses)
system.l2cache.ReadExReq_miss_rate::.cpu.data     0.301587                       # miss rate for ReadExReq accesses
system.l2cache.ReadExReq_miss_rate::total     0.301587                       # miss rate for ReadExReq accesses
system.l2cache.ReadExReq_avg_miss_latency::.cpu.data 73031.578947                       # average ReadExReq miss latency
system.l2cache.ReadExReq_avg_miss_latency::total 73031.578947                       # average ReadExReq miss latency
system.l2cache.ReadExReq_mshr_misses::.cpu.data           19                       # number of ReadExReq MSHR misses
system.l2cache.ReadExReq_mshr_misses::total           19                       # number of ReadExReq MSHR misses
system.l2cache.ReadExReq_mshr_miss_latency::.cpu.data      1235600                       # number of ReadExReq MSHR miss cycles
system.l2cache.ReadExReq_mshr_miss_latency::total      1235600                       # number of ReadExReq MSHR miss cycles
system.l2cache.ReadExReq_mshr_miss_rate::.cpu.data     0.301587                       # mshr miss rate for ReadExReq accesses
system.l2cache.ReadExReq_mshr_miss_rate::total     0.301587                       # mshr miss rate for ReadExReq accesses
system.l2cache.ReadExReq_avg_mshr_miss_latency::.cpu.data 65031.578947                       # average ReadExReq mshr miss latency
system.l2cache.ReadExReq_avg_mshr_miss_latency::total 65031.578947                       # average ReadExReq mshr miss latency
system.l2cache.ReadSharedReq_hits::.cpu.inst          330                       # number of ReadSharedReq hits
system.l2cache.ReadSharedReq_hits::.cpu.data          142                       # number of ReadSharedReq hits
system.l2cache.ReadSharedReq_hits::.cpu.dcache.prefetcher           17                       # number of ReadSharedReq hits
system.l2cache.ReadSharedReq_hits::total          489                       # number of ReadSharedReq hits
system.l2cache.ReadSharedReq_misses::.cpu.inst          254                       # number of ReadSharedReq misses
system.l2cache.ReadSharedReq_misses::.cpu.data          117                       # number of ReadSharedReq misses
system.l2cache.ReadSharedReq_misses::.cpu.dcache.prefetcher           45                       # number of ReadSharedReq misses
system.l2cache.ReadSharedReq_misses::total          416                       # number of ReadSharedReq misses
system.l2cache.ReadSharedReq_miss_latency::.cpu.inst     16916800                       # number of ReadSharedReq miss cycles
system.l2cache.ReadSharedReq_miss_latency::.cpu.data      7652800                       # number of ReadSharedReq miss cycles
system.l2cache.ReadSharedReq_miss_latency::.cpu.dcache.prefetcher      3254358                       # number of ReadSharedReq miss cycles
system.l2cache.ReadSharedReq_miss_latency::total     27823958                       # number of ReadSharedReq miss cycles
system.l2cache.ReadSharedReq_accesses::.cpu.inst          584                       # number of ReadSharedReq accesses(hits+misses)
system.l2cache.ReadSharedReq_accesses::.cpu.data          259                       # number of ReadSharedReq accesses(hits+misses)
system.l2cache.ReadSharedReq_accesses::.cpu.dcache.prefetcher           62                       # number of ReadSharedReq accesses(hits+misses)
system.l2cache.ReadSharedReq_accesses::total          905                       # number of ReadSharedReq accesses(hits+misses)
system.l2cache.ReadSharedReq_miss_rate::.cpu.inst     0.434932                       # miss rate for ReadSharedReq accesses
system.l2cache.ReadSharedReq_miss_rate::.cpu.data     0.451737                       # miss rate for ReadSharedReq accesses
system.l2cache.ReadSharedReq_miss_rate::.cpu.dcache.prefetcher     0.725806                       # miss rate for ReadSharedReq accesses
system.l2cache.ReadSharedReq_miss_rate::total     0.459669                       # miss rate for ReadSharedReq accesses
system.l2cache.ReadSharedReq_avg_miss_latency::.cpu.inst 66601.574803                       # average ReadSharedReq miss latency
system.l2cache.ReadSharedReq_avg_miss_latency::.cpu.data 65408.547009                       # average ReadSharedReq miss latency
system.l2cache.ReadSharedReq_avg_miss_latency::.cpu.dcache.prefetcher 72319.066667                       # average ReadSharedReq miss latency
system.l2cache.ReadSharedReq_avg_miss_latency::total 66884.514423                       # average ReadSharedReq miss latency
system.l2cache.ReadSharedReq_mshr_misses::.cpu.inst          254                       # number of ReadSharedReq MSHR misses
system.l2cache.ReadSharedReq_mshr_misses::.cpu.data          117                       # number of ReadSharedReq MSHR misses
system.l2cache.ReadSharedReq_mshr_misses::.cpu.dcache.prefetcher           45                       # number of ReadSharedReq MSHR misses
system.l2cache.ReadSharedReq_mshr_misses::total          416                       # number of ReadSharedReq MSHR misses
system.l2cache.ReadSharedReq_mshr_miss_latency::.cpu.inst     14892800                       # number of ReadSharedReq MSHR miss cycles
system.l2cache.ReadSharedReq_mshr_miss_latency::.cpu.data      6716800                       # number of ReadSharedReq MSHR miss cycles
system.l2cache.ReadSharedReq_mshr_miss_latency::.cpu.dcache.prefetcher      2894358                       # number of ReadSharedReq MSHR miss cycles
system.l2cache.ReadSharedReq_mshr_miss_latency::total     24503958                       # number of ReadSharedReq MSHR miss cycles
system.l2cache.ReadSharedReq_mshr_miss_rate::.cpu.inst     0.434932                       # mshr miss rate for ReadSharedReq accesses
system.l2cache.ReadSharedReq_mshr_miss_rate::.cpu.data     0.451737                       # mshr miss rate for ReadSharedReq accesses
system.l2cache.ReadSharedReq_mshr_miss_rate::.cpu.dcache.prefetcher     0.725806                       # mshr miss rate for ReadSharedReq accesses
system.l2cache.ReadSharedReq_mshr_miss_rate::total     0.459669                       # mshr miss rate for ReadSharedReq accesses
system.l2cache.ReadSharedReq_avg_mshr_miss_latency::.cpu.inst 58633.070866                       # average ReadSharedReq mshr miss latency
system.l2cache.ReadSharedReq_avg_mshr_miss_latency::.cpu.data 57408.547009                       # average ReadSharedReq mshr miss latency
system.l2cache.ReadSharedReq_avg_mshr_miss_latency::.cpu.dcache.prefetcher 64319.066667                       # average ReadSharedReq mshr miss latency
system.l2cache.ReadSharedReq_avg_mshr_miss_latency::total 58903.745192                       # average ReadSharedReq mshr miss latency
system.l2cache.prefetcher.pwrStateResidencyTicks::UNDEFINED    386970800                       # Cumulative time (in ticks) in various power states
system.l2cache.tags.pwrStateResidencyTicks::UNDEFINED    386970800                       # Cumulative time (in ticks) in various power states
system.l2cache.tags.tagsinuse                    4096                       # Cycle average of tags in use
system.l2cache.tags.total_refs                  15412                       # Total number of references to valid blocks.
system.l2cache.tags.sampled_refs                 4543                       # Sample count of references to valid blocks.
system.l2cache.tags.avg_refs                 3.392472                       # Average number of references to valid blocks.
system.l2cache.tags.warmup_cycle                    0                       # Cycle when the warmup percentage was hit.
system.l2cache.tags.occ_blocks::.writebacks    39.990704                       # Average occupied blocks per requestor
system.l2cache.tags.occ_blocks::.cpu.inst  1111.095281                       # Average occupied blocks per requestor
system.l2cache.tags.occ_blocks::.cpu.data  1900.701507                       # Average occupied blocks per requestor
system.l2cache.tags.occ_blocks::.cpu.dcache.prefetcher   881.040249                       # Average occupied blocks per requestor
system.l2cache.tags.occ_blocks::.l2cache.prefetcher   163.172259                       # Average occupied blocks per requestor
system.l2cache.tags.occ_percent::.writebacks     0.009763                       # Average percentage of cache occupancy
system.l2cache.tags.occ_percent::.cpu.inst     0.271263                       # Average percentage of cache occupancy
system.l2cache.tags.occ_percent::.cpu.data     0.464038                       # Average percentage of cache occupancy
system.l2cache.tags.occ_percent::.cpu.dcache.prefetcher     0.215098                       # Average percentage of cache occupancy
system.l2cache.tags.occ_percent::.l2cache.prefetcher     0.039837                       # Average percentage of cache occupancy
system.l2cache.tags.occ_percent::total              1                       # Average percentage of cache occupancy
system.l2cache.tags.occ_task_id_blocks::1022          965                       # Occupied blocks per task id
system.l2cache.tags.occ_task_id_blocks::1024         3131                       # Occupied blocks per task id
system.l2cache.tags.age_task_id_blocks_1022::0           15                       # Occupied blocks per task id
system.l2cache.tags.age_task_id_blocks_1022::1            1                       # Occupied blocks per task id
system.l2cache.tags.age_task_id_blocks_1022::2           34                       # Occupied blocks per task id
system.l2cache.tags.age_task_id_blocks_1022::3          915                       # Occupied blocks per task id
system.l2cache.tags.age_task_id_blocks_1024::0          167                       # Occupied blocks per task id
system.l2cache.tags.age_task_id_blocks_1024::1          107                       # Occupied blocks per task id
system.l2cache.tags.age_task_id_blocks_1024::2          123                       # Occupied blocks per task id
system.l2cache.tags.age_task_id_blocks_1024::3         2734                       # Occupied blocks per task id
system.l2cache.tags.occ_task_id_percent::1022     0.235596                       # Percentage of cache occupancy per task id
system.l2cache.tags.occ_task_id_percent::1024     0.764404                       # Percentage of cache occupancy per task id
system.l2cache.tags.tag_accesses                15919                       # Number of tag accesses
system.l2cache.tags.data_accesses               15919                       # Number of data accesses
system.mem_ctrl.pwrStateResidencyTicks::UNDEFINED    386970800                       # Cumulative time (in ticks) in various power states
system.mem_ctrl.bytes_read::.cpu.inst           16192                       # Number of bytes read from this memory
system.mem_ctrl.bytes_read::.cpu.data            8704                       # Number of bytes read from this memory
system.mem_ctrl.bytes_read::.cpu.dcache.prefetcher         2880                       # Number of bytes read from this memory
system.mem_ctrl.bytes_read::.l2cache.prefetcher          128                       # Number of bytes read from this memory
system.mem_ctrl.bytes_read::total               27904                       # Number of bytes read from this memory
system.mem_ctrl.bytes_inst_read::.cpu.inst        16192                       # Number of instructions bytes read from this memory
system.mem_ctrl.bytes_inst_read::total          16192                       # Number of instructions bytes read from this memory
system.mem_ctrl.bytes_written::.writebacks         1792                       # Number of bytes written to this memory
system.mem_ctrl.bytes_written::total             1792                       # Number of bytes written to this memory
system.mem_ctrl.num_reads::.cpu.inst              253                       # Number of read requests responded to by this memory
system.mem_ctrl.num_reads::.cpu.data              136                       # Number of read requests responded to by this memory
system.mem_ctrl.num_reads::.cpu.dcache.prefetcher           45                       # Number of read requests responded to by this memory
system.mem_ctrl.num_reads::.l2cache.prefetcher            2                       # Number of read requests responded to by this memory
system.mem_ctrl.num_reads::total                  436                       # Number of read requests responded to by this memory
system.mem_ctrl.num_writes::.writebacks            28                       # Number of write requests responded to by this memory
system.mem_ctrl.num_writes::total                  28                       # Number of write requests responded to by this memory
system.mem_ctrl.bw_read::.cpu.inst           41842950                       # Total read bandwidth from this memory (bytes/s)
system.mem_ctrl.bw_read::.cpu.data           22492653                       # Total read bandwidth from this memory (bytes/s)
system.mem_ctrl.bw_read::.cpu.dcache.prefetcher      7442422                       # Total read bandwidth from this memory (bytes/s)
system.mem_ctrl.bw_read::.l2cache.prefetcher       330774                       # Total read bandwidth from this memory (bytes/s)
system.mem_ctrl.bw_read::total               72108800                       # Total read bandwidth from this memory (bytes/s)
system.mem_ctrl.bw_inst_read::.cpu.inst      41842950                       # Instruction read bandwidth from this memory (bytes/s)
system.mem_ctrl.bw_inst_read::total          41842950                       # Instruction read bandwidth from this memory (bytes/s)
system.mem_ctrl.bw_write::.writebacks         4630840                       # Write bandwidth from this memory (bytes/s)
system.mem_ctrl.bw_write::total               4630840                       # Write bandwidth from this memory (bytes/s)
system.mem_ctrl.bw_total::.writebacks         4630840                       # Total bandwidth to/from this memory (bytes/s)
system.mem_ctrl.bw_total::.cpu.inst          41842950                       # Total bandwidth to/from this memory (bytes/s)
system.mem_ctrl.bw_total::.cpu.data          22492653                       # Total bandwidth to/from this memory (bytes/s)
system.mem_ctrl.bw_total::.cpu.dcache.prefetcher      7442422                       # Total bandwidth to/from this memory (bytes/s)
system.mem_ctrl.bw_total::.l2cache.prefetcher       330774                       # Total bandwidth to/from this memory (bytes/s)
system.mem_ctrl.bw_total::total              76739640                       # Total bandwidth to/from this memory (bytes/s)

---------- End Simulation Statistics   ----------
