
---------- Begin Simulation Statistics ----------
final_tick                                 1079688800                       # Number of ticks from beginning of simulation (restored from checkpoints and never reset)
host_inst_rate                                 168295                       # Simulator instruction rate (inst/s)
host_mem_usage                                4402744                       # Number of bytes of host memory used
host_op_rate                                   292367                       # Simulator op (including micro ops) rate (op/s)
host_seconds                                    12.21                       # Real time elapsed on the host
host_tick_rate                               88391558                       # Simulator tick rate (ticks/s)
sim_freq                                 1000000000000                       # Frequency of simulated ticks
sim_insts                                     2055677                       # Number of instructions simulated
sim_ops                                       3571213                       # Number of ops (including micro ops) simulated
sim_seconds                                  0.001080                       # Number of seconds simulated
sim_ticks                                  1079688800                       # Number of ticks simulated
system.cpu.branchPred.BTBCorrect                    0                       # Number of correct BTB predictions (this stat may not work properly.
system.cpu.branchPred.BTBHitPct              0.000000                       # BTB Hit Percentage
system.cpu.branchPred.BTBHits                       0                       # Number of BTB hits
system.cpu.branchPred.BTBLookups               430626                       # Number of BTB lookups
system.cpu.branchPred.RASInCorrect                  8                       # Number of incorrect RAS predictions.
system.cpu.branchPred.condIncorrect             24203                       # Number of conditional branches incorrect
system.cpu.branchPred.condPredicted            459880                       # Number of conditional branches predicted
system.cpu.branchPred.indirectHits             235738                       # Number of indirect target hits.
system.cpu.branchPred.indirectLookups          430626                       # Number of indirect predictor lookups.
system.cpu.branchPred.indirectMisses           194888                       # Number of indirect misses.
system.cpu.branchPred.lookups                  486129                       # Number of BP lookups
system.cpu.branchPred.usedRAS                   11236                       # Number of times the RAS was used to get a target.
system.cpu.branchPredindirectMispredicted        12270                       # Number of mispredicted indirect branches.
system.cpu.cc_regfile_reads                   2349401                       # number of cc regfile reads
system.cpu.cc_regfile_writes                  1929973                       # number of cc regfile writes
system.cpu.commit.amos                              0                       # Number of atomic instructions committed
system.cpu.commit.branchMispredicts             24297                       # The number of times a branch was mispredicted
system.cpu.commit.branches                     342762                       # Number of branches committed
system.cpu.commit.bw_lim_events                592855                       # number cycles where commit BW limit reached
system.cpu.commit.commitNonSpecStalls             732                       # The number of times commit has been forced to stall to communicate backwards
system.cpu.commit.commitSquashedInsts          877914                       # The number of squashed insts skipped by commit
system.cpu.commit.committedInsts              2055677                       # Number of instructions committed
system.cpu.commit.committedOps                3571213                       # Number of ops (including micro ops) committed
system.cpu.commit.committed_per_cycle::samples      2311592                       # Number of insts commited each cycle
system.cpu.commit.committed_per_cycle::mean     1.544915                       # Number of insts commited each cycle
system.cpu.commit.committed_per_cycle::stdev     1.724100                       # Number of insts commited each cycle
system.cpu.commit.committed_per_cycle::underflows            0      0.00%      0.00% # Number of insts commited each cycle
system.cpu.commit.committed_per_cycle::0      1143185     49.45%     49.45% # Number of insts commited each cycle
system.cpu.commit.committed_per_cycle::1       178569      7.72%     57.18% # Number of insts commited each cycle
system.cpu.commit.committed_per_cycle::2       169725      7.34%     64.52% # Number of insts commited each cycle
system.cpu.commit.committed_per_cycle::3       227258      9.83%     74.35% # Number of insts commited each cycle
system.cpu.commit.committed_per_cycle::4       592855     25.65%    100.00% # Number of insts commited each cycle
system.cpu.commit.committed_per_cycle::overflows            0      0.00%    100.00% # Number of insts commited each cycle
system.cpu.commit.committed_per_cycle::min_value            0                       # Number of insts commited each cycle
system.cpu.commit.committed_per_cycle::max_value            4                       # Number of insts commited each cycle
system.cpu.commit.committed_per_cycle::total      2311592                       # Number of insts commited each cycle
system.cpu.commit.fp_insts                      72876                       # Number of committed floating point instructions.
system.cpu.commit.function_calls                 9460                       # Number of function calls committed.
system.cpu.commit.int_insts                   3516991                       # Number of committed integer instructions.
system.cpu.commit.loads                        488202                       # Number of loads committed
system.cpu.commit.membars                           1                       # Number of memory barriers committed
system.cpu.commit.op_class_0::No_OpClass        20185      0.57%      0.57% # Class of committed instruction
system.cpu.commit.op_class_0::IntAlu          2812303     78.75%     79.31% # Class of committed instruction
system.cpu.commit.op_class_0::IntMult            1787      0.05%     79.36% # Class of committed instruction
system.cpu.commit.op_class_0::IntDiv            37816      1.06%     80.42% # Class of committed instruction
system.cpu.commit.op_class_0::FloatAdd           2834      0.08%     80.50% # Class of committed instruction
system.cpu.commit.op_class_0::FloatCmp              0      0.00%     80.50% # Class of committed instruction
system.cpu.commit.op_class_0::FloatCvt           1200      0.03%     80.54% # Class of committed instruction
system.cpu.commit.op_class_0::FloatMult             0      0.00%     80.54% # Class of committed instruction
system.cpu.commit.op_class_0::FloatMultAcc            0      0.00%     80.54% # Class of committed instruction
system.cpu.commit.op_class_0::FloatDiv              0      0.00%     80.54% # Class of committed instruction
system.cpu.commit.op_class_0::FloatMisc             0      0.00%     80.54% # Class of committed instruction
system.cpu.commit.op_class_0::FloatSqrt             0      0.00%     80.54% # Class of committed instruction
system.cpu.commit.op_class_0::SimdAdd            6184      0.17%     80.71% # Class of committed instruction
system.cpu.commit.op_class_0::SimdAddAcc            0      0.00%     80.71% # Class of committed instruction
system.cpu.commit.op_class_0::SimdAlu           11124      0.31%     81.02% # Class of committed instruction
system.cpu.commit.op_class_0::SimdCmp               0      0.00%     81.02% # Class of committed instruction
system.cpu.commit.op_class_0::SimdCvt           12050      0.34%     81.36% # Class of committed instruction
system.cpu.commit.op_class_0::SimdMisc           6479      0.18%     81.54% # Class of committed instruction
system.cpu.commit.op_class_0::SimdMult              0      0.00%     81.54% # Class of committed instruction
system.cpu.commit.op_class_0::SimdMultAcc            0      0.00%     81.54% # Class of committed instruction
system.cpu.commit.op_class_0::SimdShift          1079      0.03%     81.57% # Class of committed instruction
system.cpu.commit.op_class_0::SimdShiftAcc            0      0.00%     81.57% # Class of committed instruction
system.cpu.commit.op_class_0::SimdDiv               0      0.00%     81.57% # Class of committed instruction
system.cpu.commit.op_class_0::SimdSqrt              0      0.00%     81.57% # Class of committed instruction
system.cpu.commit.op_class_0::SimdFloatAdd            0      0.00%     81.57% # Class of committed instruction
system.cpu.commit.op_class_0::SimdFloatAlu            0      0.00%     81.57% # Class of committed instruction
system.cpu.commit.op_class_0::SimdFloatCmp            0      0.00%     81.57% # Class of committed instruction
system.cpu.commit.op_class_0::SimdFloatCvt            0      0.00%     81.57% # Class of committed instruction
system.cpu.commit.op_class_0::SimdFloatDiv            0      0.00%     81.57% # Class of committed instruction
system.cpu.commit.op_class_0::SimdFloatMisc            0      0.00%     81.57% # Class of committed instruction
system.cpu.commit.op_class_0::SimdFloatMult            0      0.00%     81.57% # Class of committed instruction
system.cpu.commit.op_class_0::SimdFloatMultAcc            0      0.00%     81.57% # Class of committed instruction
system.cpu.commit.op_class_0::SimdFloatSqrt            0      0.00%     81.57% # Class of committed instruction
system.cpu.commit.op_class_0::SimdReduceAdd            0      0.00%     81.57% # Class of committed instruction
system.cpu.commit.op_class_0::SimdReduceAlu            0      0.00%     81.57% # Class of committed instruction
system.cpu.commit.op_class_0::SimdReduceCmp            0      0.00%     81.57% # Class of committed instruction
system.cpu.commit.op_class_0::SimdFloatReduceAdd            0      0.00%     81.57% # Class of committed instruction
system.cpu.commit.op_class_0::SimdFloatReduceCmp            0      0.00%     81.57% # Class of committed instruction
system.cpu.commit.op_class_0::SimdAes               0      0.00%     81.57% # Class of committed instruction
system.cpu.commit.op_class_0::SimdAesMix            0      0.00%     81.57% # Class of committed instruction
system.cpu.commit.op_class_0::SimdSha1Hash            0      0.00%     81.57% # Class of committed instruction
system.cpu.commit.op_class_0::SimdSha1Hash2            0      0.00%     81.57% # Class of committed instruction
system.cpu.commit.op_class_0::SimdSha256Hash            0      0.00%     81.57% # Class of committed instruction
system.cpu.commit.op_class_0::SimdSha256Hash2            0      0.00%     81.57% # Class of committed instruction
system.cpu.commit.op_class_0::SimdShaSigma2            0      0.00%     81.57% # Class of committed instruction
system.cpu.commit.op_class_0::SimdShaSigma3            0      0.00%     81.57% # Class of committed instruction
system.cpu.commit.op_class_0::SimdPredAlu            0      0.00%     81.57% # Class of committed instruction
system.cpu.commit.op_class_0::MemRead          469164     13.14%     94.71% # Class of committed instruction
system.cpu.commit.op_class_0::MemWrite         157901      4.42%     99.13% # Class of committed instruction
system.cpu.commit.op_class_0::FloatMemRead        19038      0.53%     99.66% # Class of committed instruction
system.cpu.commit.op_class_0::FloatMemWrite        12069      0.34%    100.00% # Class of committed instruction
system.cpu.commit.op_class_0::IprAccess             0      0.00%    100.00% # Class of committed instruction
system.cpu.commit.op_class_0::InstPrefetch            0      0.00%    100.00% # Class of committed instruction
system.cpu.commit.op_class_0::total           3571213                       # Class of committed instruction
system.cpu.commit.refs                         658172                       # Number of memory references committed
system.cpu.commit.swp_count                         0                       # Number of s/w prefetches committed
system.cpu.commit.vec_insts                         0                       # Number of committed Vector instructions.
system.cpu.committedInsts                     2055677                       # Number of Instructions Simulated
system.cpu.committedOps                       3571213                       # Number of Ops (including micro ops) Simulated
system.cpu.cpi                               1.313058                       # CPI: Cycles Per Instruction
system.cpu.cpi_total                         1.313058                       # CPI: Total CPI of All Threads
system.cpu.dcache.prefetcher.num_hwpf_issued         8224                       # number of hwpf issued
system.cpu.dcache.prefetcher.pfBufferHit        34058                       # number of redundant prefetches already in prefetch queue
system.cpu.dcache.prefetcher.pfIdentified        48690                       # number of prefetch candidates identified
system.cpu.dcache.prefetcher.pfInCache              0                       # number of redundant prefetches already in cache/mshr dropped
system.cpu.dcache.prefetcher.pfRemovedFull            0                       # number of prefetches dropped due to prefetch queue size
system.cpu.dcache.prefetcher.pfSpanPage          4430                       # number of prefetches that crossed the page
system.cpu.decode.BlockedCycles               1016542                       # Number of cycles decode is blocked
system.cpu.decode.DecodedInsts                4665668                       # Number of instructions handled by decode
system.cpu.decode.IdleCycles                   289481                       # Number of cycles decode is idle
system.cpu.decode.RunCycles                   1132617                       # Number of cycles decode is running
system.cpu.decode.SquashCycles                  24360                       # Number of cycles decode is squashing
system.cpu.decode.UnblockCycles                 88423                       # Number of cycles decode is unblocking
system.cpu.dtb.rdAccesses                      570483                       # TLB accesses on read requests
system.cpu.dtb.rdMisses                          1977                       # TLB misses on read requests
system.cpu.dtb.wrAccesses                      189168                       # TLB accesses on write requests
system.cpu.dtb.wrMisses                           163                       # TLB misses on write requests
system.cpu.fetch.Branches                      486129                       # Number of branches that fetch encountered
system.cpu.fetch.CacheLines                    236804                       # Number of cache lines fetched
system.cpu.fetch.Cycles                       2203078                       # Number of cycles fetch has run and was not squashing or blocked
system.cpu.fetch.IcacheSquashes                  4562                       # Number of outstanding Icache misses that were squashed
system.cpu.fetch.Insts                        2821776                       # Number of instructions fetch has processed
system.cpu.fetch.MiscStallCycles                  120                       # Number of cycles fetch has spent waiting on interrupts, or bad addresses, or out of MSHRs
system.cpu.fetch.PendingQuiesceStallCycles           10                       # Number of stall cycles due to pending quiesce instructions
system.cpu.fetch.PendingTrapStallCycles           665                       # Number of stall cycles due to pending traps
system.cpu.fetch.SquashCycles                   48720                       # Number of cycles fetch has spent squashing
system.cpu.fetch.branchRate                  0.180100                       # Number of branch fetches per cycle
system.cpu.fetch.icacheStallCycles             323190                       # Number of cycles fetch is stalled on an Icache miss
system.cpu.fetch.predictedBranches             246974                       # Number of branches that fetch has predicted taken
system.cpu.fetch.rate                        1.045403                       # Number of inst fetches per cycle
system.cpu.fetch.rateDist::samples            2551423                       # Number of instructions fetched each cycle (Total)
system.cpu.fetch.rateDist::mean              1.936637                       # Number of instructions fetched each cycle (Total)
system.cpu.fetch.rateDist::stdev             1.931327                       # Number of instructions fetched each cycle (Total)
system.cpu.fetch.rateDist::underflows               0      0.00%      0.00% # Number of instructions fetched each cycle (Total)
system.cpu.fetch.rateDist::0                  1213171     47.55%     47.55% # Number of instructions fetched each cycle (Total)
system.cpu.fetch.rateDist::1                    73280      2.87%     50.42% # Number of instructions fetched each cycle (Total)
system.cpu.fetch.rateDist::2                    58611      2.30%     52.72% # Number of instructions fetched each cycle (Total)
system.cpu.fetch.rateDist::3                    74767      2.93%     55.65% # Number of instructions fetched each cycle (Total)
system.cpu.fetch.rateDist::4                  1131594     44.35%    100.00% # Number of instructions fetched each cycle (Total)
system.cpu.fetch.rateDist::overflows                0      0.00%    100.00% # Number of instructions fetched each cycle (Total)
system.cpu.fetch.rateDist::min_value                0                       # Number of instructions fetched each cycle (Total)
system.cpu.fetch.rateDist::max_value                4                       # Number of instructions fetched each cycle (Total)
system.cpu.fetch.rateDist::total              2551423                       # Number of instructions fetched each cycle (Total)
system.cpu.fp_regfile_reads                    117903                       # number of floating regfile reads
system.cpu.fp_regfile_writes                    64859                       # number of floating regfile writes
system.cpu.fuPool.fu_ticks_busy::IntALU(0)    215780800                       # Total ticks fu was busy
system.cpu.fuPool.fu_ticks_busy::IntALU(1)    215780800                       # Total ticks fu was busy
system.cpu.fuPool.fu_ticks_busy::IntALU(2)    215780800                       # Total ticks fu was busy
system.cpu.fuPool.fu_ticks_busy::IntALU(3)    215780800                       # Total ticks fu was busy
system.cpu.fuPool.fu_ticks_busy::IntALU(4)    215780800                       # Total ticks fu was busy
system.cpu.fuPool.fu_ticks_busy::IntALU(5)    215780800                       # Total ticks fu was busy
system.cpu.fuPool.fu_ticks_busy::IntMultDiv(0)      8689200                       # Total ticks fu was busy
system.cpu.fuPool.fu_ticks_busy::IntMultDiv(1)      8688800                       # Total ticks fu was busy
system.cpu.fuPool.fu_ticks_busy::FP_ALU(0)       548400                       # Total ticks fu was busy
system.cpu.fuPool.fu_ticks_busy::FP_ALU(1)       548400                       # Total ticks fu was busy
system.cpu.fuPool.fu_ticks_busy::FP_ALU(2)       548000                       # Total ticks fu was busy
system.cpu.fuPool.fu_ticks_busy::FP_ALU(3)       548000                       # Total ticks fu was busy
system.cpu.fuPool.fu_ticks_busy::FP_MultDiv(0)            0                       # Total ticks fu was busy
system.cpu.fuPool.fu_ticks_busy::FP_MultDiv(1)            0                       # Total ticks fu was busy
system.cpu.fuPool.fu_ticks_busy::SIMD_Unit(0)      4438000                       # Total ticks fu was busy
system.cpu.fuPool.fu_ticks_busy::SIMD_Unit(1)      4393600                       # Total ticks fu was busy
system.cpu.fuPool.fu_ticks_busy::SIMD_Unit(2)      4398800                       # Total ticks fu was busy
system.cpu.fuPool.fu_ticks_busy::SIMD_Unit(3)      4424400                       # Total ticks fu was busy
system.cpu.fuPool.fu_ticks_busy::PredALU(0)            0                       # Total ticks fu was busy
system.cpu.fuPool.fu_ticks_busy::RdWrPort(0)     77419600                       # Total ticks fu was busy
system.cpu.fuPool.fu_ticks_busy::RdWrPort(1)     77456800                       # Total ticks fu was busy
system.cpu.fuPool.fu_ticks_busy::RdWrPort(2)     77494000                       # Total ticks fu was busy
system.cpu.fuPool.fu_ticks_busy::RdWrPort(3)     77463600                       # Total ticks fu was busy
system.cpu.fuPool.fu_ticks_busy::IprPort(0)            0                       # Total ticks fu was busy
system.cpu.fuPool.fu_ticks_busy::total     1641744400                       # Total ticks fu was busy
system.cpu.icache.prefetcher.num_hwpf_issued            0                       # number of hwpf issued
system.cpu.icache.prefetcher.pfBufferHit            0                       # number of redundant prefetches already in prefetch queue
system.cpu.icache.prefetcher.pfIdentified            0                       # number of prefetch candidates identified
system.cpu.icache.prefetcher.pfInCache              0                       # number of redundant prefetches already in cache/mshr dropped
system.cpu.icache.prefetcher.pfRemovedFull            0                       # number of prefetches dropped due to prefetch queue size
system.cpu.icache.prefetcher.pfSpanPage             0                       # number of prefetches that crossed the page
system.cpu.idleCycles                          147800                       # Total number of cycles that the CPU has spent unscheduled due to idling
system.cpu.iew.branchMispredicts                28770                       # Number of branch mispredicts detected at execute
system.cpu.iew.exec_branches                   372435                       # Number of branches executed
system.cpu.iew.exec_nop                             0                       # number of nop insts executed
system.cpu.iew.exec_rate                     1.517537                       # Inst execution rate
system.cpu.iew.exec_refs                       761538                       # number of memory reference insts executed
system.cpu.iew.exec_stores                     189160                       # Number of stores executed
system.cpu.iew.exec_swp                             0                       # number of swp insts executed
system.cpu.iew.iewBlockCycles                  689330                       # Number of cycles IEW is blocking
system.cpu.iew.iewDispLoadInsts                602894                       # Number of dispatched load instructions
system.cpu.iew.iewDispNonSpecInsts                921                       # Number of dispatched non-speculative instructions
system.cpu.iew.iewDispSquashedInsts               553                       # Number of squashed instructions skipped by dispatch
system.cpu.iew.iewDispStoreInsts               199347                       # Number of dispatched store instructions
system.cpu.iew.iewDispatchedInsts             4449073                       # Number of instructions dispatched to IQ
system.cpu.iew.iewExecLoadInsts                572378                       # Number of load instructions executed
system.cpu.iew.iewExecSquashedInsts             34342                       # Number of squashed instructions skipped in execute
system.cpu.iew.iewExecutedInsts               4096172                       # Number of executed instructions
system.cpu.iew.iewIQFullEvents                   3294                       # Number of times the IQ has become full, causing a stall
system.cpu.iew.iewIdleCycles                        0                       # Number of cycles IEW is idle
system.cpu.iew.iewLSQFullEvents                  8656                       # Number of times the LSQ has become full, causing a stall
system.cpu.iew.iewSquashCycles                  24360                       # Number of cycles IEW is squashing
system.cpu.iew.iewUnblockCycles                 14835                       # Number of cycles IEW is unblocking
system.cpu.iew.lsq.thread0.blockedLoads             0                       # Number of blocked loads due to partial load-store forwarding
system.cpu.iew.lsq.thread0.cacheBlocked           633                       # Number of times an access to memory failed due to the cache being blocked
system.cpu.iew.lsq.thread0.forwLoads            39368                       # Number of loads that had data forwarded from stores
system.cpu.iew.lsq.thread0.ignoredResponses          229                       # Number of memory responses ignored because the instruction is squashed
system.cpu.iew.lsq.thread0.invAddrLoads             0                       # Number of loads ignored due to an invalid address
system.cpu.iew.lsq.thread0.invAddrSwpfs             0                       # Number of software prefetches ignored due to an invalid address
system.cpu.iew.lsq.thread0.memOrderViolation           72                       # Number of memory ordering violations
system.cpu.iew.lsq.thread0.rescheduledLoads            0                       # Number of loads that were rescheduled
system.cpu.iew.lsq.thread0.squashedLoads       114690                       # Number of loads squashed
system.cpu.iew.lsq.thread0.squashedStores        29376                       # Number of stores squashed
system.cpu.iew.memOrderViolationEvents             72                       # Number of memory order violations
system.cpu.iew.predictedNotTakenIncorrect        20800                       # Number of branches that were predicted not taken incorrectly
system.cpu.iew.predictedTakenIncorrect           7970                       # Number of branches that were predicted taken incorrectly
system.cpu.iew.wb_consumers                   5750421                       # num instructions consuming a value
system.cpu.iew.wb_count                       4074044                       # cumulative count of insts written-back
system.cpu.iew.wb_fanout                     0.566624                       # average fanout of values written-back
system.cpu.iew.wb_producers                   3258325                       # num instructions producing a value
system.cpu.iew.wb_rate                       1.509340                       # insts written-back per cycle
system.cpu.iew.wb_sent                        4081044                       # cumulative count of insts sent to commit
system.cpu.int_regfile_reads                  6350448                       # number of integer regfile reads
system.cpu.int_regfile_writes                 3524573                       # number of integer regfile writes
system.cpu.ipc                               0.761581                       # IPC: Instructions Per Cycle
system.cpu.ipc_total                         0.761581                       # IPC: Total IPC of All Threads
system.cpu.iq.FU_type_0::No_OpClass             26153      0.63%      0.63% # Type of FU issued
system.cpu.iq.FU_type_0::IntAlu               3236713     78.36%     78.99% # Type of FU issued
system.cpu.iq.FU_type_0::IntMult                 1807      0.04%     79.04% # Type of FU issued
system.cpu.iq.FU_type_0::IntDiv                 41638      1.01%     80.05% # Type of FU issued
system.cpu.iq.FU_type_0::FloatAdd                4258      0.10%     80.15% # Type of FU issued
system.cpu.iq.FU_type_0::FloatCmp                   0      0.00%     80.15% # Type of FU issued
system.cpu.iq.FU_type_0::FloatCvt                1224      0.03%     80.18% # Type of FU issued
system.cpu.iq.FU_type_0::FloatMult                  0      0.00%     80.18% # Type of FU issued
system.cpu.iq.FU_type_0::FloatMultAcc               0      0.00%     80.18% # Type of FU issued
system.cpu.iq.FU_type_0::FloatDiv                   0      0.00%     80.18% # Type of FU issued
system.cpu.iq.FU_type_0::FloatMisc                  0      0.00%     80.18% # Type of FU issued
system.cpu.iq.FU_type_0::FloatSqrt                  0      0.00%     80.18% # Type of FU issued
system.cpu.iq.FU_type_0::SimdAdd                 6737      0.16%     80.34% # Type of FU issued
system.cpu.iq.FU_type_0::SimdAddAcc                 0      0.00%     80.34% # Type of FU issued
system.cpu.iq.FU_type_0::SimdAlu                14752      0.36%     80.70% # Type of FU issued
system.cpu.iq.FU_type_0::SimdCmp                    0      0.00%     80.70% # Type of FU issued
system.cpu.iq.FU_type_0::SimdCvt                13602      0.33%     81.03% # Type of FU issued
system.cpu.iq.FU_type_0::SimdMisc                6987      0.17%     81.20% # Type of FU issued
system.cpu.iq.FU_type_0::SimdMult                   0      0.00%     81.20% # Type of FU issued
system.cpu.iq.FU_type_0::SimdMultAcc                0      0.00%     81.20% # Type of FU issued
system.cpu.iq.FU_type_0::SimdShift               2059      0.05%     81.25% # Type of FU issued
system.cpu.iq.FU_type_0::SimdShiftAcc               0      0.00%     81.25% # Type of FU issued
system.cpu.iq.FU_type_0::SimdDiv                    0      0.00%     81.25% # Type of FU issued
system.cpu.iq.FU_type_0::SimdSqrt                   0      0.00%     81.25% # Type of FU issued
system.cpu.iq.FU_type_0::SimdFloatAdd               0      0.00%     81.25% # Type of FU issued
system.cpu.iq.FU_type_0::SimdFloatAlu               0      0.00%     81.25% # Type of FU issued
system.cpu.iq.FU_type_0::SimdFloatCmp               0      0.00%     81.25% # Type of FU issued
system.cpu.iq.FU_type_0::SimdFloatCvt               0      0.00%     81.25% # Type of FU issued
system.cpu.iq.FU_type_0::SimdFloatDiv               0      0.00%     81.25% # Type of FU issued
system.cpu.iq.FU_type_0::SimdFloatMisc              0      0.00%     81.25% # Type of FU issued
system.cpu.iq.FU_type_0::SimdFloatMult              0      0.00%     81.25% # Type of FU issued
system.cpu.iq.FU_type_0::SimdFloatMultAcc            0      0.00%     81.25% # Type of FU issued
system.cpu.iq.FU_type_0::SimdFloatSqrt              0      0.00%     81.25% # Type of FU issued
system.cpu.iq.FU_type_0::SimdReduceAdd              0      0.00%     81.25% # Type of FU issued
system.cpu.iq.FU_type_0::SimdReduceAlu              0      0.00%     81.25% # Type of FU issued
system.cpu.iq.FU_type_0::SimdReduceCmp              0      0.00%     81.25% # Type of FU issued
system.cpu.iq.FU_type_0::SimdFloatReduceAdd            0      0.00%     81.25% # Type of FU issued
system.cpu.iq.FU_type_0::SimdFloatReduceCmp            0      0.00%     81.25% # Type of FU issued
system.cpu.iq.FU_type_0::SimdAes                    0      0.00%     81.25% # Type of FU issued
system.cpu.iq.FU_type_0::SimdAesMix                 0      0.00%     81.25% # Type of FU issued
system.cpu.iq.FU_type_0::SimdSha1Hash               0      0.00%     81.25% # Type of FU issued
system.cpu.iq.FU_type_0::SimdSha1Hash2              0      0.00%     81.25% # Type of FU issued
system.cpu.iq.FU_type_0::SimdSha256Hash             0      0.00%     81.25% # Type of FU issued
system.cpu.iq.FU_type_0::SimdSha256Hash2            0      0.00%     81.25% # Type of FU issued
system.cpu.iq.FU_type_0::SimdShaSigma2              0      0.00%     81.25% # Type of FU issued
system.cpu.iq.FU_type_0::SimdShaSigma3              0      0.00%     81.25% # Type of FU issued
system.cpu.iq.FU_type_0::SimdPredAlu                0      0.00%     81.25% # Type of FU issued
system.cpu.iq.FU_type_0::MemRead               557989     13.51%     94.76% # Type of FU issued
system.cpu.iq.FU_type_0::MemWrite              178425      4.32%     99.08% # Type of FU issued
system.cpu.iq.FU_type_0::FloatMemRead           24810      0.60%     99.68% # Type of FU issued
system.cpu.iq.FU_type_0::FloatMemWrite          13363      0.32%    100.00% # Type of FU issued
system.cpu.iq.FU_type_0::IprAccess                  0      0.00%    100.00% # Type of FU issued
system.cpu.iq.FU_type_0::InstPrefetch               0      0.00%    100.00% # Type of FU issued
system.cpu.iq.FU_type_0::total                4130517                       # Type of FU issued
system.cpu.iq.fp_alu_accesses                   88749                       # Number of floating point alu accesses
system.cpu.iq.fp_inst_queue_reads              178642                       # Number of floating instruction queue reads
system.cpu.iq.fp_inst_queue_wakeup_accesses        85374                       # Number of floating instruction queue wakeup accesses
system.cpu.iq.fp_inst_queue_writes             128124                       # Number of floating instruction queue writes
system.cpu.iq.fu_busy_cnt                           0                       # FU busy when requested
system.cpu.iq.fu_busy_rate                          0                       # FU busy rate (busy events/executed inst)
system.cpu.iq.fu_full::No_OpClass                   0                       # attempts to use FU when none available
system.cpu.iq.fu_full::IntAlu                       0                       # attempts to use FU when none available
system.cpu.iq.fu_full::IntMult                      0                       # attempts to use FU when none available
system.cpu.iq.fu_full::IntDiv                       0                       # attempts to use FU when none available
system.cpu.iq.fu_full::FloatAdd                     0                       # attempts to use FU when none available
system.cpu.iq.fu_full::FloatCmp                     0                       # attempts to use FU when none available
system.cpu.iq.fu_full::FloatCvt                     0                       # attempts to use FU when none available
system.cpu.iq.fu_full::FloatMult                    0                       # attempts to use FU when none available
system.cpu.iq.fu_full::FloatMultAcc                 0                       # attempts to use FU when none available
system.cpu.iq.fu_full::FloatDiv                     0                       # attempts to use FU when none available
system.cpu.iq.fu_full::FloatMisc                    0                       # attempts to use FU when none available
system.cpu.iq.fu_full::FloatSqrt                    0                       # attempts to use FU when none available
system.cpu.iq.fu_full::SimdAdd                      0                       # attempts to use FU when none available
system.cpu.iq.fu_full::SimdAddAcc                   0                       # attempts to use FU when none available
system.cpu.iq.fu_full::SimdAlu                      0                       # attempts to use FU when none available
system.cpu.iq.fu_full::SimdCmp                      0                       # attempts to use FU when none available
system.cpu.iq.fu_full::SimdCvt                      0                       # attempts to use FU when none available
system.cpu.iq.fu_full::SimdMisc                     0                       # attempts to use FU when none available
system.cpu.iq.fu_full::SimdMult                     0                       # attempts to use FU when none available
system.cpu.iq.fu_full::SimdMultAcc                  0                       # attempts to use FU when none available
system.cpu.iq.fu_full::SimdShift                    0                       # attempts to use FU when none available
system.cpu.iq.fu_full::SimdShiftAcc                 0                       # attempts to use FU when none available
system.cpu.iq.fu_full::SimdDiv                      0                       # attempts to use FU when none available
system.cpu.iq.fu_full::SimdSqrt                     0                       # attempts to use FU when none available
system.cpu.iq.fu_full::SimdFloatAdd                 0                       # attempts to use FU when none available
system.cpu.iq.fu_full::SimdFloatAlu                 0                       # attempts to use FU when none available
system.cpu.iq.fu_full::SimdFloatCmp                 0                       # attempts to use FU when none available
system.cpu.iq.fu_full::SimdFloatCvt                 0                       # attempts to use FU when none available
system.cpu.iq.fu_full::SimdFloatDiv                 0                       # attempts to use FU when none available
system.cpu.iq.fu_full::SimdFloatMisc                0                       # attempts to use FU when none available
system.cpu.iq.fu_full::SimdFloatMult                0                       # attempts to use FU when none available
system.cpu.iq.fu_full::SimdFloatMultAcc             0                       # attempts to use FU when none available
system.cpu.iq.fu_full::SimdFloatSqrt                0                       # attempts to use FU when none available
system.cpu.iq.fu_full::SimdReduceAdd                0                       # attempts to use FU when none available
system.cpu.iq.fu_full::SimdReduceAlu                0                       # attempts to use FU when none available
system.cpu.iq.fu_full::SimdReduceCmp                0                       # attempts to use FU when none available
system.cpu.iq.fu_full::SimdFloatReduceAdd            0                       # attempts to use FU when none available
system.cpu.iq.fu_full::SimdFloatReduceCmp            0                       # attempts to use FU when none available
system.cpu.iq.fu_full::SimdAes                      0                       # attempts to use FU when none available
system.cpu.iq.fu_full::SimdAesMix                   0                       # attempts to use FU when none available
system.cpu.iq.fu_full::SimdSha1Hash                 0                       # attempts to use FU when none available
system.cpu.iq.fu_full::SimdSha1Hash2                0                       # attempts to use FU when none available
system.cpu.iq.fu_full::SimdSha256Hash               0                       # attempts to use FU when none available
system.cpu.iq.fu_full::SimdSha256Hash2              0                       # attempts to use FU when none available
system.cpu.iq.fu_full::SimdShaSigma2                0                       # attempts to use FU when none available
system.cpu.iq.fu_full::SimdShaSigma3                0                       # attempts to use FU when none available
system.cpu.iq.fu_full::SimdPredAlu                  0                       # attempts to use FU when none available
system.cpu.iq.fu_full::MemRead                      0                       # attempts to use FU when none available
system.cpu.iq.fu_full::MemWrite                     0                       # attempts to use FU when none available
system.cpu.iq.fu_full::FloatMemRead                 0                       # attempts to use FU when none available
system.cpu.iq.fu_full::FloatMemWrite                0                       # attempts to use FU when none available
system.cpu.iq.fu_full::IprAccess                    0                       # attempts to use FU when none available
system.cpu.iq.fu_full::InstPrefetch                 0                       # attempts to use FU when none available
system.cpu.iq.int_alu_accesses                4015615                       # Number of integer alu accesses
system.cpu.iq.int_inst_queue_reads           10651954                       # Number of integer instruction queue reads
system.cpu.iq.int_inst_queue_wakeup_accesses      3988670                       # Number of integer instruction queue wakeup accesses
system.cpu.iq.int_inst_queue_writes           5198870                       # Number of integer instruction queue writes
system.cpu.iq.iqInstsAdded                    4447966                       # Number of instructions added to the IQ (excludes non-spec)
system.cpu.iq.iqInstsIssued                   4130517                       # Number of instructions issued
system.cpu.iq.iqNonSpecInstsAdded                1107                       # Number of non-speculative instructions added to the IQ
system.cpu.iq.iqSquashedInstsExamined          877849                       # Number of squashed instructions iterated over during squash; mainly for profiling
system.cpu.iq.iqSquashedInstsIssued             18142                       # Number of squashed instructions issued
system.cpu.iq.iqSquashedNonSpecRemoved            375                       # Number of squashed non-spec instructions that were removed
system.cpu.iq.iqSquashedOperandsExamined      1315588                       # Number of squashed operands that are examined and possibly removed from graph
system.cpu.iq.issued_per_cycle::samples       2551423                       # Number of insts issued each cycle
system.cpu.iq.issued_per_cycle::mean         1.618907                       # Number of insts issued each cycle
system.cpu.iq.issued_per_cycle::stdev        1.669687                       # Number of insts issued each cycle
system.cpu.iq.issued_per_cycle::underflows            0      0.00%      0.00% # Number of insts issued each cycle
system.cpu.iq.issued_per_cycle::0             1156035     45.31%     45.31% # Number of insts issued each cycle
system.cpu.iq.issued_per_cycle::1              172507      6.76%     52.07% # Number of insts issued each cycle
system.cpu.iq.issued_per_cycle::2              297955     11.68%     63.75% # Number of insts issued each cycle
system.cpu.iq.issued_per_cycle::3              337604     13.23%     76.98% # Number of insts issued each cycle
system.cpu.iq.issued_per_cycle::4              587322     23.02%    100.00% # Number of insts issued each cycle
system.cpu.iq.issued_per_cycle::overflows            0      0.00%    100.00% # Number of insts issued each cycle
system.cpu.iq.issued_per_cycle::min_value            0                       # Number of insts issued each cycle
system.cpu.iq.issued_per_cycle::max_value            4                       # Number of insts issued each cycle
system.cpu.iq.issued_per_cycle::total         2551423                       # Number of insts issued each cycle
system.cpu.iq.rate                           1.530261                       # Inst issue rate
system.cpu.iq.vec_alu_accesses                      0                       # Number of vector alu accesses
system.cpu.iq.vec_inst_queue_reads                  0                       # Number of vector instruction queue reads
system.cpu.iq.vec_inst_queue_wakeup_accesses            0                       # Number of vector instruction queue wakeup accesses
system.cpu.iq.vec_inst_queue_writes                 0                       # Number of vector instruction queue writes
system.cpu.itb.rdAccesses                           0                       # TLB accesses on read requests
system.cpu.itb.rdMisses                             0                       # TLB misses on read requests
system.cpu.itb.wrAccesses                      236915                       # TLB accesses on write requests
system.cpu.itb.wrMisses                           353                       # TLB misses on write requests
system.cpu.memDep0.conflictingLoads              9132                       # Number of conflicting loads.
system.cpu.memDep0.conflictingStores             2320                       # Number of conflicting stores.
system.cpu.memDep0.insertedLoads               602894                       # Number of loads inserted to the mem dependence unit.
system.cpu.memDep0.insertedStores              199347                       # Number of stores inserted to the mem dependence unit.
system.cpu.misc_regfile_reads                 1542414                       # number of misc regfile reads
system.cpu.misc_regfile_writes                    675                       # number of misc regfile writes
system.cpu.numCycles                          2699223                       # number of cpu cycles simulated
system.cpu.numWorkItemsCompleted                    0                       # number of work items this cpu completed
system.cpu.numWorkItemsStarted                      0                       # number of work items this cpu started
system.cpu.process.numSyscalls                     56                       # Number of system calls
system.cpu.rename.BlockCycles                  835552                       # Number of cycles rename is blocking
system.cpu.rename.CommittedMaps               4903014                       # Number of HB maps that are committed
system.cpu.rename.FullRegisterEvents               47                       # Number of times there has been no free registers
system.cpu.rename.IQFullEvents                  47738                       # Number of times rename has blocked due to IQ full
system.cpu.rename.IdleCycles                   339737                       # Number of cycles rename is idle
system.cpu.rename.LQFullEvents                  12877                       # Number of times rename has blocked due to LQ full
system.cpu.rename.ROBFullEvents                  4304                       # Number of times rename has blocked due to ROB full
system.cpu.rename.RenameLookups              11993084                       # Number of register rename lookups that rename has made
system.cpu.rename.RenamedInsts                4590641                       # Number of instructions processed by rename
system.cpu.rename.RenamedOperands             6287155                       # Number of destination operands rename has renamed
system.cpu.rename.RunCycles                   1162532                       # Number of cycles rename is running
system.cpu.rename.SQFullEvents                  73329                       # Number of times rename has blocked due to SQ full
system.cpu.rename.SquashCycles                  24360                       # Number of cycles rename is squashing
system.cpu.rename.UnblockCycles                169838                       # Number of cycles rename is unblocking
system.cpu.rename.UndoneMaps                  1384118                       # Number of HB maps that are undone due to squashing
system.cpu.rename.fp_rename_lookups            151447                       # Number of floating rename lookups
system.cpu.rename.int_rename_lookups          7292082                       # Number of integer rename lookups
system.cpu.rename.serializeStallCycles          19404                       # count of cycles rename stalled for serializing inst
system.cpu.rename.serializingInsts                863                       # count of serializing insts renamed
system.cpu.rename.skidInsts                    205838                       # count of insts added to the skid buffer
system.cpu.rename.tempSerializingInsts            910                       # count of temporary serializing insts renamed
system.cpu.rob.rob_reads                      6167864                       # The number of ROB reads
system.cpu.rob.rob_writes                     9139033                       # The number of ROB writes
system.cpu.timesIdled                            1472                       # Number of times that the entire CPU went into an idle state and unscheduled itself
system.l2bus.snoop_filter.hit_multi_requests           11                       # Number of requests hitting in the snoop filter with multiple (>1) holders of the requested data.
system.l2bus.snoop_filter.hit_multi_snoops            0                       # Number of snoops hitting in the snoop filter with multiple (>1) holders of the requested data.
system.l2bus.snoop_filter.hit_single_requests        18156                       # Number of requests hitting in the snoop filter with a single holder of the requested data.
system.l2bus.snoop_filter.hit_single_snoops          429                       # Number of snoops hitting in the snoop filter with a single holder of the requested data.
system.l2bus.snoop_filter.tot_requests          37592                       # Total number of requests made to the snoop filter.
system.l2bus.snoop_filter.tot_snoops              429                       # Total number of snoops made to the snoop filter.
system.l2cache.prefetcher.num_hwpf_issued          665                       # number of hwpf issued
system.l2cache.prefetcher.pfBufferHit               0                       # number of redundant prefetches already in prefetch queue
system.l2cache.prefetcher.pfIdentified            665                       # number of prefetch candidates identified
system.l2cache.prefetcher.pfInCache                 0                       # number of redundant prefetches already in cache/mshr dropped
system.l2cache.prefetcher.pfRemovedFull             0                       # number of prefetches dropped due to prefetch queue size
system.l2cache.prefetcher.pfSpanPage               99                       # number of prefetches that crossed the page
system.membus.snoop_filter.hit_multi_requests            0                       # Number of requests hitting in the snoop filter with multiple (>1) holders of the requested data.
system.membus.snoop_filter.hit_multi_snoops            0                       # Number of snoops hitting in the snoop filter with multiple (>1) holders of the requested data.
system.membus.snoop_filter.hit_single_requests         9222                       # Number of requests hitting in the snoop filter with a single holder of the requested data.
system.membus.snoop_filter.hit_single_snoops            0                       # Number of snoops hitting in the snoop filter with a single holder of the requested data.
system.membus.snoop_filter.tot_requests         22563                       # Total number of requests made to the snoop filter.
system.membus.snoop_filter.tot_snoops               0                       # Total number of snoops made to the snoop filter.
system.membus.pwrStateResidencyTicks::UNDEFINED   1079688800                       # Cumulative time (in ticks) in various power states
system.membus.trans_dist::ReadResp              12007                       # Transaction distribution
system.membus.trans_dist::WritebackDirty         1330                       # Transaction distribution
system.membus.trans_dist::CleanEvict             7892                       # Transaction distribution
system.membus.trans_dist::ReadExReq              1334                       # Transaction distribution
system.membus.trans_dist::ReadExResp             1334                       # Transaction distribution
system.membus.trans_dist::ReadSharedReq         12007                       # Transaction distribution
system.membus.pkt_count_system.l2cache.mem_side::system.mem_ctrl.port        35904                       # Packet count per connected master and slave (bytes)
system.membus.pkt_count_system.l2cache.mem_side::total        35904                       # Packet count per connected master and slave (bytes)
system.membus.pkt_count::total                  35904                       # Packet count per connected master and slave (bytes)
system.membus.pkt_size_system.l2cache.mem_side::system.mem_ctrl.port       938944                       # Cumulative packet size per connected master and slave (bytes)
system.membus.pkt_size_system.l2cache.mem_side::total       938944                       # Cumulative packet size per connected master and slave (bytes)
system.membus.pkt_size::total                  938944                       # Cumulative packet size per connected master and slave (bytes)
system.membus.snoops                                0                       # Total snoops (count)
system.membus.snoopTraffic                          0                       # Total snoop traffic (bytes)
system.membus.snoop_fanout::samples             13341                       # Request fanout histogram
system.membus.snoop_fanout::mean                    0                       # Request fanout histogram
system.membus.snoop_fanout::stdev                   0                       # Request fanout histogram
system.membus.snoop_fanout::underflows              0      0.00%      0.00% # Request fanout histogram
system.membus.snoop_fanout::0                   13341    100.00%    100.00% # Request fanout histogram
system.membus.snoop_fanout::1                       0      0.00%    100.00% # Request fanout histogram
system.membus.snoop_fanout::overflows               0      0.00%    100.00% # Request fanout histogram
system.membus.snoop_fanout::min_value               0                       # Request fanout histogram
system.membus.snoop_fanout::max_value               0                       # Request fanout histogram
system.membus.snoop_fanout::total               13341                       # Request fanout histogram
system.membus.reqLayer2.occupancy            11177872                       # Layer occupancy (ticks)
system.membus.reqLayer2.utilization               1.0                       # Layer utilization (%)
system.membus.respLayer0.occupancy           28937528                       # Layer occupancy (ticks)
system.membus.respLayer0.utilization              2.7                       # Layer utilization (%)
system.l2bus.pwrStateResidencyTicks::UNDEFINED   1079688800                       # Cumulative time (in ticks) in various power states
system.l2bus.trans_dist::ReadResp               17349                       # Transaction distribution
system.l2bus.trans_dist::WritebackDirty          4096                       # Transaction distribution
system.l2bus.trans_dist::CleanEvict             23364                       # Transaction distribution
system.l2bus.trans_dist::HardPFReq                935                       # Transaction distribution
system.l2bus.trans_dist::UpgradeReq                 1                       # Transaction distribution
system.l2bus.trans_dist::UpgradeResp                1                       # Transaction distribution
system.l2bus.trans_dist::ReadExReq               2087                       # Transaction distribution
system.l2bus.trans_dist::ReadExResp              2087                       # Transaction distribution
system.l2bus.trans_dist::ReadSharedReq          17349                       # Transaction distribution
system.l2bus.pkt_count_system.cpu.icache.mem_side::system.l2cache.cpu_side         7602                       # Packet count per connected master and slave (bytes)
system.l2bus.pkt_count_system.cpu.dcache.mem_side::system.l2cache.cpu_side        49423                       # Packet count per connected master and slave (bytes)
system.l2bus.pkt_count::total                   57025                       # Packet count per connected master and slave (bytes)
system.l2bus.pkt_size_system.cpu.icache.mem_side::system.l2cache.cpu_side       167488                       # Cumulative packet size per connected master and slave (bytes)
system.l2bus.pkt_size_system.cpu.dcache.mem_side::system.l2cache.cpu_side      1253184                       # Cumulative packet size per connected master and slave (bytes)
system.l2bus.pkt_size::total                  1420672                       # Cumulative packet size per connected master and slave (bytes)
system.l2bus.snoops                             10244                       # Total snoops (count)
system.l2bus.snoopTraffic                       85376                       # Total snoop traffic (bytes)
system.l2bus.snoop_fanout::samples              29677                       # Request fanout histogram
system.l2bus.snoop_fanout::mean              0.014860                       # Request fanout histogram
system.l2bus.snoop_fanout::stdev             0.120994                       # Request fanout histogram
system.l2bus.snoop_fanout::underflows               0      0.00%      0.00% # Request fanout histogram
system.l2bus.snoop_fanout::0                    29236     98.51%     98.51% # Request fanout histogram
system.l2bus.snoop_fanout::1                      441      1.49%    100.00% # Request fanout histogram
system.l2bus.snoop_fanout::2                        0      0.00%    100.00% # Request fanout histogram
system.l2bus.snoop_fanout::overflows                0      0.00%    100.00% # Request fanout histogram
system.l2bus.snoop_fanout::min_value                0                       # Request fanout histogram
system.l2bus.snoop_fanout::max_value                1                       # Request fanout histogram
system.l2bus.snoop_fanout::total                29677                       # Request fanout histogram
system.l2bus.respLayer1.occupancy            20178400                       # Layer occupancy (ticks)
system.l2bus.respLayer1.utilization               1.9                       # Layer utilization (%)
system.l2bus.reqLayer0.occupancy             18688221                       # Layer occupancy (ticks)
system.l2bus.reqLayer0.utilization                1.7                       # Layer utilization (%)
system.l2bus.respLayer0.occupancy             3145599                       # Layer occupancy (ticks)
system.l2bus.respLayer0.utilization               0.3                       # Layer utilization (%)
system.clk_domain.clock                           400                       # Clock period in ticks
system.clk_domain.voltage_domain.voltage            1                       # Voltage in Volts
system.cpu.pwrStateResidencyTicks::ON      1079688800                       # Cumulative time (in ticks) in various power states
system.cpu.icache.pwrStateResidencyTicks::UNDEFINED   1079688800                       # Cumulative time (in ticks) in various power states
system.cpu.icache.demand_hits::.cpu.inst       233507                       # number of demand (read+write) hits
system.cpu.icache.demand_hits::total           233507                       # number of demand (read+write) hits
system.cpu.icache.overall_hits::.cpu.inst       233507                       # number of overall hits
system.cpu.icache.overall_hits::total          233507                       # number of overall hits
system.cpu.icache.demand_misses::.cpu.inst         3296                       # number of demand (read+write) misses
system.cpu.icache.demand_misses::total           3296                       # number of demand (read+write) misses
system.cpu.icache.overall_misses::.cpu.inst         3296                       # number of overall misses
system.cpu.icache.overall_misses::total          3296                       # number of overall misses
system.cpu.icache.demand_miss_latency::.cpu.inst    163535600                       # number of demand (read+write) miss cycles
system.cpu.icache.demand_miss_latency::total    163535600                       # number of demand (read+write) miss cycles
system.cpu.icache.overall_miss_latency::.cpu.inst    163535600                       # number of overall miss cycles
system.cpu.icache.overall_miss_latency::total    163535600                       # number of overall miss cycles
system.cpu.icache.demand_accesses::.cpu.inst       236803                       # number of demand (read+write) accesses
system.cpu.icache.demand_accesses::total       236803                       # number of demand (read+write) accesses
system.cpu.icache.overall_accesses::.cpu.inst       236803                       # number of overall (read+write) accesses
system.cpu.icache.overall_accesses::total       236803                       # number of overall (read+write) accesses
system.cpu.icache.demand_miss_rate::.cpu.inst     0.013919                       # miss rate for demand accesses
system.cpu.icache.demand_miss_rate::total     0.013919                       # miss rate for demand accesses
system.cpu.icache.overall_miss_rate::.cpu.inst     0.013919                       # miss rate for overall accesses
system.cpu.icache.overall_miss_rate::total     0.013919                       # miss rate for overall accesses
system.cpu.icache.demand_avg_miss_latency::.cpu.inst 49616.383495                       # average overall miss latency
system.cpu.icache.demand_avg_miss_latency::total 49616.383495                       # average overall miss latency
system.cpu.icache.overall_avg_miss_latency::.cpu.inst 49616.383495                       # average overall miss latency
system.cpu.icache.overall_avg_miss_latency::total 49616.383495                       # average overall miss latency
system.cpu.icache.blocked_cycles::no_mshrs           39                       # number of cycles access was blocked
system.cpu.icache.blocked_cycles::no_targets            0                       # number of cycles access was blocked
system.cpu.icache.blocked::no_mshrs                 2                       # number of cycles access was blocked
system.cpu.icache.blocked::no_targets               0                       # number of cycles access was blocked
system.cpu.icache.avg_blocked_cycles::no_mshrs    19.500000                       # average number of cycles each access was blocked
system.cpu.icache.avg_blocked_cycles::no_targets          nan                       # average number of cycles each access was blocked
system.cpu.icache.demand_mshr_hits::.cpu.inst          675                       # number of demand (read+write) MSHR hits
system.cpu.icache.demand_mshr_hits::total          675                       # number of demand (read+write) MSHR hits
system.cpu.icache.overall_mshr_hits::.cpu.inst          675                       # number of overall MSHR hits
system.cpu.icache.overall_mshr_hits::total          675                       # number of overall MSHR hits
system.cpu.icache.demand_mshr_misses::.cpu.inst         2621                       # number of demand (read+write) MSHR misses
system.cpu.icache.demand_mshr_misses::total         2621                       # number of demand (read+write) MSHR misses
system.cpu.icache.overall_mshr_misses::.cpu.inst         2621                       # number of overall MSHR misses
system.cpu.icache.overall_mshr_misses::total         2621                       # number of overall MSHR misses
system.cpu.icache.demand_mshr_miss_latency::.cpu.inst    131136400                       # number of demand (read+write) MSHR miss cycles
system.cpu.icache.demand_mshr_miss_latency::total    131136400                       # number of demand (read+write) MSHR miss cycles
system.cpu.icache.overall_mshr_miss_latency::.cpu.inst    131136400                       # number of overall MSHR miss cycles
system.cpu.icache.overall_mshr_miss_latency::total    131136400                       # number of overall MSHR miss cycles
system.cpu.icache.demand_mshr_miss_rate::.cpu.inst     0.011068                       # mshr miss rate for demand accesses
system.cpu.icache.demand_mshr_miss_rate::total     0.011068                       # mshr miss rate for demand accesses
system.cpu.icache.overall_mshr_miss_rate::.cpu.inst     0.011068                       # mshr miss rate for overall accesses
system.cpu.icache.overall_mshr_miss_rate::total     0.011068                       # mshr miss rate for overall accesses
system.cpu.icache.demand_avg_mshr_miss_latency::.cpu.inst 50032.964517                       # average overall mshr miss latency
system.cpu.icache.demand_avg_mshr_miss_latency::total 50032.964517                       # average overall mshr miss latency
system.cpu.icache.overall_avg_mshr_miss_latency::.cpu.inst 50032.964517                       # average overall mshr miss latency
system.cpu.icache.overall_avg_mshr_miss_latency::total 50032.964517                       # average overall mshr miss latency
system.cpu.icache.replacements                   2364                       # number of replacements
system.cpu.icache.ReadReq_hits::.cpu.inst       233507                       # number of ReadReq hits
system.cpu.icache.ReadReq_hits::total          233507                       # number of ReadReq hits
system.cpu.icache.ReadReq_misses::.cpu.inst         3296                       # number of ReadReq misses
system.cpu.icache.ReadReq_misses::total          3296                       # number of ReadReq misses
system.cpu.icache.ReadReq_miss_latency::.cpu.inst    163535600                       # number of ReadReq miss cycles
system.cpu.icache.ReadReq_miss_latency::total    163535600                       # number of ReadReq miss cycles
system.cpu.icache.ReadReq_accesses::.cpu.inst       236803                       # number of ReadReq accesses(hits+misses)
system.cpu.icache.ReadReq_accesses::total       236803                       # number of ReadReq accesses(hits+misses)
system.cpu.icache.ReadReq_miss_rate::.cpu.inst     0.013919                       # miss rate for ReadReq accesses
system.cpu.icache.ReadReq_miss_rate::total     0.013919                       # miss rate for ReadReq accesses
system.cpu.icache.ReadReq_avg_miss_latency::.cpu.inst 49616.383495                       # average ReadReq miss latency
system.cpu.icache.ReadReq_avg_miss_latency::total 49616.383495                       # average ReadReq miss latency
system.cpu.icache.ReadReq_mshr_hits::.cpu.inst          675                       # number of ReadReq MSHR hits
system.cpu.icache.ReadReq_mshr_hits::total          675                       # number of ReadReq MSHR hits
system.cpu.icache.ReadReq_mshr_misses::.cpu.inst         2621                       # number of ReadReq MSHR misses
system.cpu.icache.ReadReq_mshr_misses::total         2621                       # number of ReadReq MSHR misses
system.cpu.icache.ReadReq_mshr_miss_latency::.cpu.inst    131136400                       # number of ReadReq MSHR miss cycles
system.cpu.icache.ReadReq_mshr_miss_latency::total    131136400                       # number of ReadReq MSHR miss cycles
system.cpu.icache.ReadReq_mshr_miss_rate::.cpu.inst     0.011068                       # mshr miss rate for ReadReq accesses
system.cpu.icache.ReadReq_mshr_miss_rate::total     0.011068                       # mshr miss rate for ReadReq accesses
system.cpu.icache.ReadReq_avg_mshr_miss_latency::.cpu.inst 50032.964517                       # average ReadReq mshr miss latency
system.cpu.icache.ReadReq_avg_mshr_miss_latency::total 50032.964517                       # average ReadReq mshr miss latency
system.cpu.icache.prefetcher.pwrStateResidencyTicks::UNDEFINED   1079688800                       # Cumulative time (in ticks) in various power states
system.cpu.icache.tags.pwrStateResidencyTicks::UNDEFINED   1079688800                       # Cumulative time (in ticks) in various power states
system.cpu.icache.tags.tagsinuse           253.468266                       # Cycle average of tags in use
system.cpu.icache.tags.total_refs              210338                       # Total number of references to valid blocks.
system.cpu.icache.tags.sampled_refs              2365                       # Sample count of references to valid blocks.
system.cpu.icache.tags.avg_refs             88.937844                       # Average number of references to valid blocks.
system.cpu.icache.tags.warmup_cycle             66400                       # Cycle when the warmup percentage was hit.
system.cpu.icache.tags.occ_blocks::.cpu.inst   253.468266                       # Average occupied blocks per requestor
system.cpu.icache.tags.occ_percent::.cpu.inst     0.990110                       # Average percentage of cache occupancy
system.cpu.icache.tags.occ_percent::total     0.990110                       # Average percentage of cache occupancy
system.cpu.icache.tags.occ_task_id_blocks::1024          256                       # Occupied blocks per task id
system.cpu.icache.tags.age_task_id_blocks_1024::0           68                       # Occupied blocks per task id
system.cpu.icache.tags.age_task_id_blocks_1024::1          163                       # Occupied blocks per task id
system.cpu.icache.tags.age_task_id_blocks_1024::2           25                       # Occupied blocks per task id
system.cpu.icache.tags.occ_task_id_percent::1024            1                       # Percentage of cache occupancy per task id
system.cpu.icache.tags.tag_accesses            476227                       # Number of tag accesses
system.cpu.icache.tags.data_accesses           476227                       # Number of data accesses
system.cpu.dtb.walker.pwrStateResidencyTicks::UNDEFINED   1079688800                       # Cumulative time (in ticks) in various power states
system.cpu.interrupts.clk_domain.clock           6400                       # Clock period in ticks
system.cpu.itb.walker.pwrStateResidencyTicks::UNDEFINED   1079688800                       # Cumulative time (in ticks) in various power states
system.cpu.dcache.pwrStateResidencyTicks::UNDEFINED   1079688800                       # Cumulative time (in ticks) in various power states
system.cpu.dcache.demand_hits::.cpu.data       665821                       # number of demand (read+write) hits
system.cpu.dcache.demand_hits::total           665821                       # number of demand (read+write) hits
system.cpu.dcache.overall_hits::.cpu.data       665821                       # number of overall hits
system.cpu.dcache.overall_hits::total          665821                       # number of overall hits
system.cpu.dcache.demand_misses::.cpu.data        34161                       # number of demand (read+write) misses
system.cpu.dcache.demand_misses::total          34161                       # number of demand (read+write) misses
system.cpu.dcache.overall_misses::.cpu.data        34161                       # number of overall misses
system.cpu.dcache.overall_misses::total         34161                       # number of overall misses
system.cpu.dcache.demand_miss_latency::.cpu.data   1646737598                       # number of demand (read+write) miss cycles
system.cpu.dcache.demand_miss_latency::total   1646737598                       # number of demand (read+write) miss cycles
system.cpu.dcache.overall_miss_latency::.cpu.data   1646737598                       # number of overall miss cycles
system.cpu.dcache.overall_miss_latency::total   1646737598                       # number of overall miss cycles
system.cpu.dcache.demand_accesses::.cpu.data       699982                       # number of demand (read+write) accesses
system.cpu.dcache.demand_accesses::total       699982                       # number of demand (read+write) accesses
system.cpu.dcache.overall_accesses::.cpu.data       699982                       # number of overall (read+write) accesses
system.cpu.dcache.overall_accesses::total       699982                       # number of overall (read+write) accesses
system.cpu.dcache.demand_miss_rate::.cpu.data     0.048803                       # miss rate for demand accesses
system.cpu.dcache.demand_miss_rate::total     0.048803                       # miss rate for demand accesses
system.cpu.dcache.overall_miss_rate::.cpu.data     0.048803                       # miss rate for overall accesses
system.cpu.dcache.overall_miss_rate::total     0.048803                       # miss rate for overall accesses
system.cpu.dcache.demand_avg_miss_latency::.cpu.data 48205.192998                       # average overall miss latency
system.cpu.dcache.demand_avg_miss_latency::total 48205.192998                       # average overall miss latency
system.cpu.dcache.overall_avg_miss_latency::.cpu.data 48205.192998                       # average overall miss latency
system.cpu.dcache.overall_avg_miss_latency::total 48205.192998                       # average overall miss latency
system.cpu.dcache.blocked_cycles::no_mshrs        30958                       # number of cycles access was blocked
system.cpu.dcache.blocked_cycles::no_targets          138                       # number of cycles access was blocked
system.cpu.dcache.blocked::no_mshrs               766                       # number of cycles access was blocked
system.cpu.dcache.blocked::no_targets               1                       # number of cycles access was blocked
system.cpu.dcache.avg_blocked_cycles::no_mshrs    40.415144                       # average number of cycles each access was blocked
system.cpu.dcache.avg_blocked_cycles::no_targets          138                       # average number of cycles each access was blocked
system.cpu.dcache.unused_prefetches              1778                       # number of HardPF blocks evicted w/o reference
system.cpu.dcache.writebacks::.writebacks         2766                       # number of writebacks
system.cpu.dcache.writebacks::total              2766                       # number of writebacks
system.cpu.dcache.demand_mshr_hits::.cpu.data        21738                       # number of demand (read+write) MSHR hits
system.cpu.dcache.demand_mshr_hits::total        21738                       # number of demand (read+write) MSHR hits
system.cpu.dcache.overall_mshr_hits::.cpu.data        21738                       # number of overall MSHR hits
system.cpu.dcache.overall_mshr_hits::total        21738                       # number of overall MSHR hits
system.cpu.dcache.demand_mshr_misses::.cpu.data        12423                       # number of demand (read+write) MSHR misses
system.cpu.dcache.demand_mshr_misses::total        12423                       # number of demand (read+write) MSHR misses
system.cpu.dcache.overall_mshr_misses::.cpu.data        12423                       # number of overall MSHR misses
system.cpu.dcache.overall_mshr_misses::.cpu.dcache.prefetcher         4393                       # number of overall MSHR misses
system.cpu.dcache.overall_mshr_misses::total        16816                       # number of overall MSHR misses
system.cpu.dcache.demand_mshr_miss_latency::.cpu.data    569870000                       # number of demand (read+write) MSHR miss cycles
system.cpu.dcache.demand_mshr_miss_latency::total    569870000                       # number of demand (read+write) MSHR miss cycles
system.cpu.dcache.overall_mshr_miss_latency::.cpu.data    569870000                       # number of overall MSHR miss cycles
system.cpu.dcache.overall_mshr_miss_latency::.cpu.dcache.prefetcher    254221279                       # number of overall MSHR miss cycles
system.cpu.dcache.overall_mshr_miss_latency::total    824091279                       # number of overall MSHR miss cycles
system.cpu.dcache.demand_mshr_miss_rate::.cpu.data     0.017748                       # mshr miss rate for demand accesses
system.cpu.dcache.demand_mshr_miss_rate::total     0.017748                       # mshr miss rate for demand accesses
system.cpu.dcache.overall_mshr_miss_rate::.cpu.data     0.017748                       # mshr miss rate for overall accesses
system.cpu.dcache.overall_mshr_miss_rate::.cpu.dcache.prefetcher          inf                       # mshr miss rate for overall accesses
system.cpu.dcache.overall_mshr_miss_rate::total     0.024023                       # mshr miss rate for overall accesses
system.cpu.dcache.demand_avg_mshr_miss_latency::.cpu.data 45872.172583                       # average overall mshr miss latency
system.cpu.dcache.demand_avg_mshr_miss_latency::total 45872.172583                       # average overall mshr miss latency
system.cpu.dcache.overall_avg_mshr_miss_latency::.cpu.data 45872.172583                       # average overall mshr miss latency
system.cpu.dcache.overall_avg_mshr_miss_latency::.cpu.dcache.prefetcher 57869.628728                       # average overall mshr miss latency
system.cpu.dcache.overall_avg_mshr_miss_latency::total 49006.379579                       # average overall mshr miss latency
system.cpu.dcache.replacements                  15791                       # number of replacements
system.cpu.dcache.ReadReq_hits::.cpu.data       497962                       # number of ReadReq hits
system.cpu.dcache.ReadReq_hits::total          497962                       # number of ReadReq hits
system.cpu.dcache.ReadReq_misses::.cpu.data        32045                       # number of ReadReq misses
system.cpu.dcache.ReadReq_misses::total         32045                       # number of ReadReq misses
system.cpu.dcache.ReadReq_miss_latency::.cpu.data   1543003200                       # number of ReadReq miss cycles
system.cpu.dcache.ReadReq_miss_latency::total   1543003200                       # number of ReadReq miss cycles
system.cpu.dcache.ReadReq_accesses::.cpu.data       530007                       # number of ReadReq accesses(hits+misses)
system.cpu.dcache.ReadReq_accesses::total       530007                       # number of ReadReq accesses(hits+misses)
system.cpu.dcache.ReadReq_miss_rate::.cpu.data     0.060461                       # miss rate for ReadReq accesses
system.cpu.dcache.ReadReq_miss_rate::total     0.060461                       # miss rate for ReadReq accesses
system.cpu.dcache.ReadReq_avg_miss_latency::.cpu.data 48151.137463                       # average ReadReq miss latency
system.cpu.dcache.ReadReq_avg_miss_latency::total 48151.137463                       # average ReadReq miss latency
system.cpu.dcache.ReadReq_mshr_hits::.cpu.data        21709                       # number of ReadReq MSHR hits
system.cpu.dcache.ReadReq_mshr_hits::total        21709                       # number of ReadReq MSHR hits
system.cpu.dcache.ReadReq_mshr_misses::.cpu.data        10336                       # number of ReadReq MSHR misses
system.cpu.dcache.ReadReq_mshr_misses::total        10336                       # number of ReadReq MSHR misses
system.cpu.dcache.ReadReq_mshr_miss_latency::.cpu.data    468854800                       # number of ReadReq MSHR miss cycles
system.cpu.dcache.ReadReq_mshr_miss_latency::total    468854800                       # number of ReadReq MSHR miss cycles
system.cpu.dcache.ReadReq_mshr_miss_rate::.cpu.data     0.019502                       # mshr miss rate for ReadReq accesses
system.cpu.dcache.ReadReq_mshr_miss_rate::total     0.019502                       # mshr miss rate for ReadReq accesses
system.cpu.dcache.ReadReq_avg_mshr_miss_latency::.cpu.data 45361.339009                       # average ReadReq mshr miss latency
system.cpu.dcache.ReadReq_avg_mshr_miss_latency::total 45361.339009                       # average ReadReq mshr miss latency
system.cpu.dcache.WriteReq_hits::.cpu.data       167859                       # number of WriteReq hits
system.cpu.dcache.WriteReq_hits::total         167859                       # number of WriteReq hits
system.cpu.dcache.WriteReq_misses::.cpu.data         2116                       # number of WriteReq misses
system.cpu.dcache.WriteReq_misses::total         2116                       # number of WriteReq misses
system.cpu.dcache.WriteReq_miss_latency::.cpu.data    103734398                       # number of WriteReq miss cycles
system.cpu.dcache.WriteReq_miss_latency::total    103734398                       # number of WriteReq miss cycles
system.cpu.dcache.WriteReq_accesses::.cpu.data       169975                       # number of WriteReq accesses(hits+misses)
system.cpu.dcache.WriteReq_accesses::total       169975                       # number of WriteReq accesses(hits+misses)
system.cpu.dcache.WriteReq_miss_rate::.cpu.data     0.012449                       # miss rate for WriteReq accesses
system.cpu.dcache.WriteReq_miss_rate::total     0.012449                       # miss rate for WriteReq accesses
system.cpu.dcache.WriteReq_avg_miss_latency::.cpu.data 49023.817580                       # average WriteReq miss latency
system.cpu.dcache.WriteReq_avg_miss_latency::total 49023.817580                       # average WriteReq miss latency
system.cpu.dcache.WriteReq_mshr_hits::.cpu.data           29                       # number of WriteReq MSHR hits
system.cpu.dcache.WriteReq_mshr_hits::total           29                       # number of WriteReq MSHR hits
system.cpu.dcache.WriteReq_mshr_misses::.cpu.data         2087                       # number of WriteReq MSHR misses
system.cpu.dcache.WriteReq_mshr_misses::total         2087                       # number of WriteReq MSHR misses
[...]
system.l2cache.overall_mshr_miss_rate::.cpu.data     0.523392                       # mshr miss rate for overall accesses
system.l2cache.overall_mshr_miss_rate::.cpu.dcache.prefetcher     0.709302                       # mshr miss rate for overall accesses
system.l2cache.overall_mshr_miss_rate::.l2cache.prefetcher          inf                       # mshr miss rate for overall accesses
system.l2cache.overall_mshr_miss_rate::total     0.269231                       # mshr miss rate for overall accesses
system.l2cache.demand_avg_mshr_miss_latency::.cpu.inst 59943.703704                       # average overall mshr miss latency
system.l2cache.demand_avg_mshr_miss_latency::.cpu.data 59336.312849                       # average overall mshr miss latency
system.l2cache.demand_avg_mshr_miss_latency::.cpu.dcache.prefetcher 58366.180328                       # average overall mshr miss latency
system.l2cache.demand_avg_mshr_miss_latency::total 59625.948837                       # average overall mshr miss latency
system.l2cache.overall_avg_mshr_miss_latency::.cpu.inst 59943.703704                       # average overall mshr miss latency
system.l2cache.overall_avg_mshr_miss_latency::.cpu.data 59336.312849                       # average overall mshr miss latency
system.l2cache.overall_avg_mshr_miss_latency::.cpu.dcache.prefetcher 58366.180328                       # average overall mshr miss latency
system.l2cache.overall_avg_mshr_miss_latency::.l2cache.prefetcher        59332                       # average overall mshr miss latency
system.l2cache.overall_avg_mshr_miss_latency::total 59623.239631                       # average overall mshr miss latency
system.l2cache.replacements                       661                       # number of replacements
system.l2cache.WritebackDirty_hits::.writebacks          119                       # number of WritebackDirty hits
system.l2cache.WritebackDirty_hits::total          119                       # number of WritebackDirty hits
system.l2cache.WritebackDirty_accesses::.writebacks          119                       # number of WritebackDirty accesses(hits+misses)
system.l2cache.WritebackDirty_accesses::total          119                       # number of WritebackDirty accesses(hits+misses)
system.l2cache.CleanEvict_mshr_misses::.writebacks           29                       # number of CleanEvict MSHR misses
system.l2cache.CleanEvict_mshr_misses::total           29                       # number of CleanEvict MSHR misses
system.l2cache.CleanEvict_mshr_miss_rate::.writebacks          inf                       # mshr miss rate for CleanEvict accesses
system.l2cache.CleanEvict_mshr_miss_rate::total          inf                       # mshr miss rate for CleanEvict accesses
system.l2cache.HardPFReq_mshr_misses::.l2cache.prefetcher            6                       # number of HardPFReq MSHR misses
system.l2cache.HardPFReq_mshr_misses::total            6                       # number of HardPFReq MSHR misses
system.l2cache.HardPFReq_mshr_miss_latency::.l2cache.prefetcher       355992                       # number of HardPFReq MSHR miss cycles
system.l2cache.HardPFReq_mshr_miss_latency::total       355992                       # number of HardPFReq MSHR miss cycles
system.l2cache.HardPFReq_mshr_miss_rate::.l2cache.prefetcher          inf                       # mshr miss rate for HardPFReq accesses
system.l2cache.HardPFReq_mshr_miss_rate::total          inf                       # mshr miss rate for HardPFReq accesses
system.l2cache.HardPFReq_avg_mshr_miss_latency::.l2cache.prefetcher        59332                       # average HardPFReq mshr miss latency
system.l2cache.HardPFReq_avg_mshr_miss_latency::total        59332                       # average HardPFReq mshr miss latency
system.l2cache.UpgradeReq_hits::.cpu.data            1                       # number of UpgradeReq hits
system.l2cache.UpgradeReq_hits::total               1                       # number of UpgradeReq hits
system.l2cache.UpgradeReq_accesses::.cpu.data            1                       # number of UpgradeReq accesses(hits+misses)
system.l2cache.UpgradeReq_accesses::total            1                       # number of UpgradeReq accesses(hits+misses)
system.l2cache.ReadExReq_hits::.cpu.data            7                       # number of ReadExReq hits
system.l2cache.ReadExReq_hits::total                7                       # number of ReadExReq hits
system.l2cache.ReadExReq_misses::.cpu.data           22                       # number of ReadExReq misses
system.l2cache.ReadExReq_misses::total             22                       # number of ReadExReq misses
system.l2cache.ReadExReq_miss_latency::.cpu.data      1530000                       # number of ReadExReq miss cycles
system.l2cache.ReadExReq_miss_latency::total      1530000                       # number of ReadExReq miss cycles
system.l2cache.ReadExReq_accesses::.cpu.data           29                       # number of ReadExReq accesses(hits+misses)
system.l2cache.ReadExReq_accesses::total           29                       # number of ReadExReq accesses(hits+misses)
system.l2cache.ReadExReq_miss_rate::.cpu.data     0.758621                       # miss rate for ReadExReq accesses
system.l2cache.ReadExReq_miss_rate::total     0.758621                       # miss rate for ReadExReq accesses
system.l2cache.ReadExReq_avg_miss_latency::.cpu.data 69545.454545                       # average ReadExReq miss latency
system.l2cache.ReadExReq_avg_miss_latency::total 69545.454545                       # average ReadExReq miss latency
system.l2cache.ReadExReq_mshr_misses::.cpu.data           22                       # number of ReadExReq MSHR misses
system.l2cache.ReadExReq_mshr_misses::total           22                       # number of ReadExReq MSHR misses
system.l2cache.ReadExReq_mshr_miss_latency::.cpu.data      1354000                       # number of ReadExReq MSHR miss cycles
system.l2cache.ReadExReq_mshr_miss_latency::total      1354000                       # number of ReadExReq MSHR miss cycles
system.l2cache.ReadExReq_mshr_miss_rate::.cpu.data     0.758621                       # mshr miss rate for ReadExReq accesses
system.l2cache.ReadExReq_mshr_miss_rate::total     0.758621                       # mshr miss rate for ReadExReq accesses
system.l2cache.ReadExReq_avg_mshr_miss_latency::.cpu.data 61545.454545                       # average ReadExReq mshr miss latency
system.l2cache.ReadExReq_avg_mshr_miss_latency::total 61545.454545                       # average ReadExReq mshr miss latency
system.l2cache.ReadSharedReq_hits::.cpu.inst         1585                       # number of ReadSharedReq hits
system.l2cache.ReadSharedReq_hits::.cpu.data          155                       # number of ReadSharedReq hits
system.l2cache.ReadSharedReq_hits::.cpu.dcache.prefetcher           25                       # number of ReadSharedReq hits
system.l2cache.ReadSharedReq_hits::total         1765                       # number of ReadSharedReq hits
system.l2cache.ReadSharedReq_misses::.cpu.inst          405                       # number of ReadSharedReq misses
system.l2cache.ReadSharedReq_misses::.cpu.data          158                       # number of ReadSharedReq misses
system.l2cache.ReadSharedReq_misses::.cpu.dcache.prefetcher           61                       # number of ReadSharedReq misses
system.l2cache.ReadSharedReq_misses::total          624                       # number of ReadSharedReq misses
system.l2cache.ReadSharedReq_miss_latency::.cpu.inst     27509200                       # number of ReadSharedReq miss cycles
system.l2cache.ReadSharedReq_miss_latency::.cpu.data     10579600                       # number of ReadSharedReq miss cycles
system.l2cache.ReadSharedReq_miss_latency::.cpu.dcache.prefetcher      4048337                       # number of ReadSharedReq miss cycles
system.l2cache.ReadSharedReq_miss_latency::total     42137137                       # number of ReadSharedReq miss cycles
system.l2cache.ReadSharedReq_accesses::.cpu.inst         1990                       # number of ReadSharedReq accesses(hits+misses)
system.l2cache.ReadSharedReq_accesses::.cpu.data          313                       # number of ReadSharedReq accesses(hits+misses)
system.l2cache.ReadSharedReq_accesses::.cpu.dcache.prefetcher           86                       # number of ReadSharedReq accesses(hits+misses)
system.l2cache.ReadSharedReq_accesses::total         2389                       # number of ReadSharedReq accesses(hits+misses)
system.l2cache.ReadSharedReq_miss_rate::.cpu.inst     0.203518                       # miss rate for ReadSharedReq accesses
system.l2cache.ReadSharedReq_miss_rate::.cpu.data     0.504792                       # miss rate for ReadSharedReq accesses
system.l2cache.ReadSharedReq_miss_rate::.cpu.dcache.prefetcher     0.709302                       # miss rate for ReadSharedReq accesses
system.l2cache.ReadSharedReq_miss_rate::total     0.261197                       # miss rate for ReadSharedReq accesses
system.l2cache.ReadSharedReq_avg_miss_latency::.cpu.inst 67923.950617                       # average ReadSharedReq miss latency
system.l2cache.ReadSharedReq_avg_miss_latency::.cpu.data 66959.493671                       # average ReadSharedReq miss latency
system.l2cache.ReadSharedReq_avg_miss_latency::.cpu.dcache.prefetcher 66366.180328                       # average ReadSharedReq miss latency
system.l2cache.ReadSharedReq_avg_miss_latency::total 67527.463141                       # average ReadSharedReq miss latency
system.l2cache.ReadSharedReq_mshr_hits::.cpu.data            1                       # number of ReadSharedReq MSHR hits
system.l2cache.ReadSharedReq_mshr_hits::total            1                       # number of ReadSharedReq MSHR hits
system.l2cache.ReadSharedReq_mshr_misses::.cpu.inst          405                       # number of ReadSharedReq MSHR misses
system.l2cache.ReadSharedReq_mshr_misses::.cpu.data          157                       # number of ReadSharedReq MSHR misses
system.l2cache.ReadSharedReq_mshr_misses::.cpu.dcache.prefetcher           61                       # number of ReadSharedReq MSHR misses
system.l2cache.ReadSharedReq_mshr_misses::total          623                       # number of ReadSharedReq MSHR misses
system.l2cache.ReadSharedReq_mshr_miss_latency::.cpu.inst     24277200                       # number of ReadSharedReq MSHR miss cycles
system.l2cache.ReadSharedReq_mshr_miss_latency::.cpu.data      9267200                       # number of ReadSharedReq MSHR miss cycles
system.l2cache.ReadSharedReq_mshr_miss_latency::.cpu.dcache.prefetcher      3560337                       # number of ReadSharedReq MSHR miss cycles
system.l2cache.ReadSharedReq_mshr_miss_latency::total     37104737                       # number of ReadSharedReq MSHR miss cycles
system.l2cache.ReadSharedReq_mshr_miss_rate::.cpu.inst     0.203518                       # mshr miss rate for ReadSharedReq accesses
system.l2cache.ReadSharedReq_mshr_miss_rate::.cpu.data     0.501597                       # mshr miss rate for ReadSharedReq accesses
system.l2cache.ReadSharedReq_mshr_miss_rate::.cpu.dcache.prefetcher     0.709302                       # mshr miss rate for ReadSharedReq accesses
system.l2cache.ReadSharedReq_mshr_miss_rate::total     0.260779                       # mshr miss rate for ReadSharedReq accesses
system.l2cache.ReadSharedReq_avg_mshr_miss_latency::.cpu.inst 59943.703704                       # average ReadSharedReq mshr miss latency
system.l2cache.ReadSharedReq_avg_mshr_miss_latency::.cpu.data 59026.751592                       # average ReadSharedReq mshr miss latency
system.l2cache.ReadSharedReq_avg_mshr_miss_latency::.cpu.dcache.prefetcher 58366.180328                       # average ReadSharedReq mshr miss latency
system.l2cache.ReadSharedReq_avg_mshr_miss_latency::total 59558.165329                       # average ReadSharedReq mshr miss latency
system.l2cache.prefetcher.pwrStateResidencyTicks::UNDEFINED    136831200                       # Cumulative time (in ticks) in various power states
system.l2cache.tags.pwrStateResidencyTicks::UNDEFINED    136831200                       # Cumulative time (in ticks) in various power states
system.l2cache.tags.tagsinuse                    4096                       # Cycle average of tags in use
system.l2cache.tags.total_refs                  17245                       # Total number of references to valid blocks.
system.l2cache.tags.sampled_refs                 4757                       # Sample count of references to valid blocks.
system.l2cache.tags.avg_refs                 3.625184                       # Average number of references to valid blocks.
system.l2cache.tags.warmup_cycle                    0                       # Cycle when the warmup percentage was hit.
system.l2cache.tags.occ_blocks::.writebacks    38.962813                       # Average occupied blocks per requestor
system.l2cache.tags.occ_blocks::.cpu.inst  1115.456502                       # Average occupied blocks per requestor
system.l2cache.tags.occ_blocks::.cpu.data  1776.653754                       # Average occupied blocks per requestor
system.l2cache.tags.occ_blocks::.cpu.dcache.prefetcher  1033.165354                       # Average occupied blocks per requestor
system.l2cache.tags.occ_blocks::.l2cache.prefetcher   131.761578                       # Average occupied blocks per requestor
system.l2cache.tags.occ_percent::.writebacks     0.009512                       # Average percentage of cache occupancy
system.l2cache.tags.occ_percent::.cpu.inst     0.272328                       # Average percentage of cache occupancy
system.l2cache.tags.occ_percent::.cpu.data     0.433753                       # Average percentage of cache occupancy
system.l2cache.tags.occ_percent::.cpu.dcache.prefetcher     0.252238                       # Average percentage of cache occupancy
system.l2cache.tags.occ_percent::.l2cache.prefetcher     0.032168                       # Average percentage of cache occupancy
system.l2cache.tags.occ_percent::total              1                       # Average percentage of cache occupancy
system.l2cache.tags.occ_task_id_blocks::1022         1082                       # Occupied blocks per task id
system.l2cache.tags.occ_task_id_blocks::1024         3014                       # Occupied blocks per task id
system.l2cache.tags.age_task_id_blocks_1022::0            9                       # Occupied blocks per task id
system.l2cache.tags.age_task_id_blocks_1022::1           30                       # Occupied blocks per task id
system.l2cache.tags.age_task_id_blocks_1022::2          946                       # Occupied blocks per task id
system.l2cache.tags.age_task_id_blocks_1022::3           97                       # Occupied blocks per task id
system.l2cache.tags.age_task_id_blocks_1024::0          173                       # Occupied blocks per task id
system.l2cache.tags.age_task_id_blocks_1024::1          150                       # Occupied blocks per task id
system.l2cache.tags.age_task_id_blocks_1024::2         2412                       # Occupied blocks per task id
system.l2cache.tags.age_task_id_blocks_1024::3          279                       # Occupied blocks per task id
system.l2cache.tags.occ_task_id_percent::1022     0.264160                       # Percentage of cache occupancy per task id
system.l2cache.tags.occ_task_id_percent::1024     0.735840                       # Percentage of cache occupancy per task id
system.l2cache.tags.tag_accesses                39285                       # Number of tag accesses
system.l2cache.tags.data_accesses               39285                       # Number of data accesses
system.mem_ctrl.pwrStateResidencyTicks::UNDEFINED    136831200                       # Cumulative time (in ticks) in various power states
system.mem_ctrl.bytes_read::.cpu.inst           25856                       # Number of bytes read from this memory
system.mem_ctrl.bytes_read::.cpu.data           11456                       # Number of bytes read from this memory
system.mem_ctrl.bytes_read::.cpu.dcache.prefetcher         3904                       # Number of bytes read from this memory
system.mem_ctrl.bytes_read::.l2cache.prefetcher          384                       # Number of bytes read from this memory
system.mem_ctrl.bytes_read::total               41600                       # Number of bytes read from this memory
system.mem_ctrl.bytes_inst_read::.cpu.inst        25856                       # Number of instructions bytes read from this memory
system.mem_ctrl.bytes_inst_read::total          25856                       # Number of instructions bytes read from this memory
system.mem_ctrl.bytes_written::.writebacks         2816                       # Number of bytes written to this memory
system.mem_ctrl.bytes_written::total             2816                       # Number of bytes written to this memory
system.mem_ctrl.num_reads::.cpu.inst              404                       # Number of read requests responded to by this memory
system.mem_ctrl.num_reads::.cpu.data              179                       # Number of read requests responded to by this memory
system.mem_ctrl.num_reads::.cpu.dcache.prefetcher           61                       # Number of read requests responded to by this memory
system.mem_ctrl.num_reads::.l2cache.prefetcher            6                       # Number of read requests responded to by this memory
system.mem_ctrl.num_reads::total                  650                       # Number of read requests responded to by this memory
system.mem_ctrl.num_writes::.writebacks            44                       # Number of write requests responded to by this memory
system.mem_ctrl.num_writes::total                  44                       # Number of write requests responded to by this memory
system.mem_ctrl.bw_read::.cpu.inst          188962751                       # Total read bandwidth from this memory (bytes/s)
system.mem_ctrl.bw_read::.cpu.data           83723595                       # Total read bandwidth from this memory (bytes/s)
system.mem_ctrl.bw_read::.cpu.dcache.prefetcher     28531505                       # Total read bandwidth from this memory (bytes/s)
system.mem_ctrl.bw_read::.l2cache.prefetcher      2806377                       # Total read bandwidth from this memory (bytes/s)
system.mem_ctrl.bw_read::total              304024228                       # Total read bandwidth from this memory (bytes/s)
system.mem_ctrl.bw_inst_read::.cpu.inst     188962751                       # Instruction read bandwidth from this memory (bytes/s)
system.mem_ctrl.bw_inst_read::total         188962751                       # Instruction read bandwidth from this memory (bytes/s)
system.mem_ctrl.bw_write::.writebacks        20580102                       # Write bandwidth from this memory (bytes/s)
system.mem_ctrl.bw_write::total              20580102                       # Write bandwidth from this memory (bytes/s)
system.mem_ctrl.bw_total::.writebacks        20580102                       # Total bandwidth to/from this memory (bytes/s)
system.mem_ctrl.bw_total::.cpu.inst         188962751                       # Total bandwidth to/from this memory (bytes/s)
system.mem_ctrl.bw_total::.cpu.data          83723595                       # Total bandwidth to/from this memory (bytes/s)
system.mem_ctrl.bw_total::.cpu.dcache.prefetcher     28531505                       # Total bandwidth to/from this memory (bytes/s)
system.mem_ctrl.bw_total::.l2cache.prefetcher      2806377                       # Total bandwidth to/from this memory (bytes/s)
system.mem_ctrl.bw_total::total             324604330                       # Total bandwidth to/from this memory (bytes/s)

---------- End Simulation Statistics   ----------
