
---------- Begin Simulation Statistics ----------
final_tick                                 1085074000                       # Number of ticks from beginning of simulation (restored from checkpoints and never reset)
host_inst_rate                                 180520                       # Simulator instruction rate (inst/s)
host_mem_usage                                4402744                       # Number of bytes of host memory used
host_op_rate                                   313601                       # Simulator op (including micro ops) rate (op/s)
host_seconds                                    11.39                       # Real time elapsed on the host
host_tick_rate                               95293905                       # Simulator tick rate (ticks/s)
sim_freq                                 1000000000000                       # Frequency of simulated ticks
sim_insts                                     2055493                       # Number of instructions simulated
sim_ops                                       3570845                       # Number of ops (including micro ops) simulated
sim_seconds                                  0.001085                       # Number of seconds simulated
sim_ticks                                  1085074000                       # Number of ticks simulated
system.cpu.branchPred.BTBCorrect                    0                       # Number of correct BTB predictions (this stat may not work properly.
system.cpu.branchPred.BTBHitPct              0.000000                       # BTB Hit Percentage
system.cpu.branchPred.BTBHits                       0                       # Number of BTB hits
system.cpu.branchPred.BTBLookups               435751                       # Number of BTB lookups
system.cpu.branchPred.RASInCorrect                  5                       # Number of incorrect RAS predictions.
system.cpu.branchPred.condIncorrect             24316                       # Number of conditional branches incorrect
system.cpu.branchPred.condPredicted            462098                       # Number of conditional branches predicted
system.cpu.branchPred.indirectHits             237655                       # Number of indirect target hits.
system.cpu.branchPred.indirectLookups          435751                       # Number of indirect predictor lookups.
system.cpu.branchPred.indirectMisses           198096                       # Number of indirect misses.
system.cpu.branchPred.lookups                  488284                       # Number of BP lookups
system.cpu.branchPred.usedRAS                   11259                       # Number of times the RAS was used to get a target.
system.cpu.branchPredindirectMispredicted        12213                       # Number of mispredicted indirect branches.
system.cpu.cc_regfile_reads                   2356406                       # number of cc regfile reads
system.cpu.cc_regfile_writes                  1933645                       # number of cc regfile writes
system.cpu.commit.amos                              0                       # Number of atomic instructions committed
system.cpu.commit.branchMispredicts             24398                       # The number of times a branch was mispredicted
system.cpu.commit.branches                     342722                       # Number of branches committed
system.cpu.commit.bw_lim_events                591966                       # number cycles where commit BW limit reached
system.cpu.commit.commitNonSpecStalls             732                       # The number of times commit has been forced to stall to communicate backwards
system.cpu.commit.commitSquashedInsts          891969                       # The number of squashed insts skipped by commit
system.cpu.commit.committedInsts              2055493                       # Number of instructions committed
system.cpu.commit.committedOps                3570845                       # Number of ops (including micro ops) committed
system.cpu.commit.committed_per_cycle::samples      2320248                       # Number of insts commited each cycle
system.cpu.commit.committed_per_cycle::mean     1.538993                       # Number of insts commited each cycle
system.cpu.commit.committed_per_cycle::stdev     1.722812                       # Number of insts commited each cycle
system.cpu.commit.committed_per_cycle::underflows            0      0.00%      0.00% # Number of insts commited each cycle
system.cpu.commit.committed_per_cycle::0      1151203     49.62%     49.62% # Number of insts commited each cycle
system.cpu.commit.committed_per_cycle::1       179150      7.72%     57.34% # Number of insts commited each cycle
system.cpu.commit.committed_per_cycle::2       169956      7.32%     64.66% # Number of insts commited each cycle
system.cpu.commit.committed_per_cycle::3       227973      9.83%     74.49% # Number of insts commited each cycle
system.cpu.commit.committed_per_cycle::4       591966     25.51%    100.00% # Number of insts commited each cycle
system.cpu.commit.committed_per_cycle::overflows            0      0.00%    100.00% # Number of insts commited each cycle
system.cpu.commit.committed_per_cycle::min_value            0                       # Number of insts commited each cycle
system.cpu.commit.committed_per_cycle::max_value            4                       # Number of insts commited each cycle
system.cpu.commit.committed_per_cycle::total      2320248                       # Number of insts commited each cycle
system.cpu.commit.fp_insts                      72844                       # Number of committed floating point instructions.
system.cpu.commit.function_calls                 9460                       # Number of function calls committed.
system.cpu.commit.int_insts                   3516679                       # Number of committed integer instructions.
system.cpu.commit.loads                        488194                       # Number of loads committed
system.cpu.commit.membars                           1                       # Number of memory barriers committed
system.cpu.commit.op_class_0::No_OpClass        20165      0.56%      0.56% # Class of committed instruction
system.cpu.commit.op_class_0::IntAlu          2811995     78.75%     79.31% # Class of committed instruction
system.cpu.commit.op_class_0::IntMult            1787      0.05%     79.36% # Class of committed instruction
system.cpu.commit.op_class_0::IntDiv            37816      1.06%     80.42% # Class of committed instruction
system.cpu.commit.op_class_0::FloatAdd           2834      0.08%     80.50% # Class of committed instruction
system.cpu.commit.op_class_0::FloatCmp              0      0.00%     80.50% # Class of committed instruction
system.cpu.commit.op_class_0::FloatCvt           1200      0.03%     80.54% # Class of committed instruction
system.cpu.commit.op_class_0::FloatMult             0      0.00%     80.54% # Class of committed instruction
system.cpu.commit.op_class_0::FloatMultAcc            0      0.00%     80.54% # Class of committed instruction
system.cpu.commit.op_class_0::FloatDiv              0      0.00%     80.54% # Class of committed instruction
system.cpu.commit.op_class_0::FloatMisc             0      0.00%     80.54% # Class of committed instruction
system.cpu.commit.op_class_0::FloatSqrt             0      0.00%     80.54% # Class of committed instruction
system.cpu.commit.op_class_0::SimdAdd            6184      0.17%     80.71% # Class of committed instruction
system.cpu.commit.op_class_0::SimdAddAcc            0      0.00%     80.71% # Class of committed instruction
system.cpu.commit.op_class_0::SimdAlu           11116      0.31%     81.02% # Class of committed instruction
system.cpu.commit.op_class_0::SimdCmp               0      0.00%     81.02% # Class of committed instruction
system.cpu.commit.op_class_0::SimdCvt           12050      0.34%     81.36% # Class of committed instruction
system.cpu.commit.op_class_0::SimdMisc           6479      0.18%     81.54% # Class of committed instruction
system.cpu.commit.op_class_0::SimdMult              0      0.00%     81.54% # Class of committed instruction
system.cpu.commit.op_class_0::SimdMultAcc            0      0.00%     81.54% # Class of committed instruction
system.cpu.commit.op_class_0::SimdShift          1055      0.03%     81.57% # Class of committed instruction
system.cpu.commit.op_class_0::SimdShiftAcc            0      0.00%     81.57% # Class of committed instruction
system.cpu.commit.op_class_0::SimdDiv               0      0.00%     81.57% # Class of committed instruction
system.cpu.commit.op_class_0::SimdSqrt              0      0.00%     81.57% # Class of committed instruction
system.cpu.commit.op_class_0::SimdFloatAdd            0      0.00%     81.57% # Class of committed instruction
system.cpu.commit.op_class_0::SimdFloatAlu            0      0.00%     81.57% # Class of committed instruction
system.cpu.commit.op_class_0::SimdFloatCmp            0      0.00%     81.57% # Class of committed instruction
system.cpu.commit.op_class_0::SimdFloatCvt            0      0.00%     81.57% # Class of committed instruction
system.cpu.commit.op_class_0::SimdFloatDiv            0      0.00%     81.57% # Class of committed instruction
system.cpu.commit.op_class_0::SimdFloatMisc            0      0.00%     81.57% # Class of committed instruction
system.cpu.commit.op_class_0::SimdFloatMult            0      0.00%     81.57% # Class of committed instruction
system.cpu.commit.op_class_0::SimdFloatMultAcc            0      0.00%     81.57% # Class of committed instruction
system.cpu.commit.op_class_0::SimdFloatSqrt            0      0.00%     81.57% # Class of committed instruction
system.cpu.commit.op_class_0::SimdReduceAdd            0      0.00%     81.57% # Class of committed instruction
system.cpu.commit.op_class_0::SimdReduceAlu            0      0.00%     81.57% # Class of committed instruction
system.cpu.commit.op_class_0::SimdReduceCmp            0      0.00%     81.57% # Class of committed instruction
system.cpu.commit.op_class_0::SimdFloatReduceAdd            0      0.00%     81.57% # Class of committed instruction
system.cpu.commit.op_class_0::SimdFloatReduceCmp            0      0.00%     81.57% # Class of committed instruction
system.cpu.commit.op_class_0::SimdAes               0      0.00%     81.57% # Class of committed instruction
system.cpu.commit.op_class_0::SimdAesMix            0      0.00%     81.57% # Class of committed instruction
system.cpu.commit.op_class_0::SimdSha1Hash            0      0.00%     81.57% # Class of committed instruction
system.cpu.commit.op_class_0::SimdSha1Hash2            0      0.00%     81.57% # Class of committed instruction
system.cpu.commit.op_class_0::SimdSha256Hash            0      0.00%     81.57% # Class of committed instruction
system.cpu.commit.op_class_0::SimdSha256Hash2            0      0.00%     81.57% # Class of committed instruction
system.cpu.commit.op_class_0::SimdShaSigma2            0      0.00%     81.57% # Class of committed instruction
system.cpu.commit.op_class_0::SimdShaSigma3            0      0.00%     81.57% # Class of committed instruction
system.cpu.commit.op_class_0::SimdPredAlu            0      0.00%     81.57% # Class of committed instruction
system.cpu.commit.op_class_0::MemRead          469156     13.14%     94.71% # Class of committed instruction
system.cpu.commit.op_class_0::MemWrite         157901      4.42%     99.13% # Class of committed instruction
system.cpu.commit.op_class_0::FloatMemRead        19038      0.53%     99.66% # Class of committed instruction
system.cpu.commit.op_class_0::FloatMemWrite        12069      0.34%    100.00% # Class of committed instruction
system.cpu.commit.op_class_0::IprAccess             0      0.00%    100.00% # Class of committed instruction
system.cpu.commit.op_class_0::InstPrefetch            0      0.00%    100.00% # Class of committed instruction
system.cpu.commit.op_class_0::total           3570845                       # Class of committed instruction
system.cpu.commit.refs                         658164                       # Number of memory references committed
system.cpu.commit.swp_count                         0                       # Number of s/w prefetches committed
system.cpu.commit.vec_insts                         0                       # Number of committed Vector instructions.
system.cpu.committedInsts                     2055493                       # Number of Instructions Simulated
system.cpu.committedOps                       3570845                       # Number of Ops (including micro ops) Simulated
system.cpu.cpi                               1.319725                       # CPI: Cycles Per Instruction
system.cpu.cpi_total                         1.319725                       # CPI: Total CPI of All Threads
system.cpu.dcache.prefetcher.num_hwpf_issued         7719                       # number of hwpf issued
system.cpu.dcache.prefetcher.pfBufferHit        33381                       # number of redundant prefetches already in prefetch queue
system.cpu.dcache.prefetcher.pfIdentified        48286                       # number of prefetch candidates identified
system.cpu.dcache.prefetcher.pfInCache              0                       # number of redundant prefetches already in cache/mshr dropped
system.cpu.dcache.prefetcher.pfRemovedFull            0                       # number of prefetches dropped due to prefetch queue size
system.cpu.dcache.prefetcher.pfSpanPage          4378                       # number of prefetches that crossed the page
system.cpu.decode.BlockedCycles               1021789                       # Number of cycles decode is blocked
system.cpu.decode.DecodedInsts                4680392                       # Number of instructions handled by decode
system.cpu.decode.IdleCycles                   291911                       # Number of cycles decode is idle
system.cpu.decode.RunCycles                   1137068                       # Number of cycles decode is running
system.cpu.decode.SquashCycles                  24464                       # Number of cycles decode is squashing
system.cpu.decode.UnblockCycles                 88048                       # Number of cycles decode is unblocking
system.cpu.dtb.rdAccesses                      572614                       # TLB accesses on read requests
system.cpu.dtb.rdMisses                          2014                       # TLB misses on read requests
system.cpu.dtb.wrAccesses                      190545                       # TLB accesses on write requests
system.cpu.dtb.wrMisses                           165                       # TLB misses on write requests
system.cpu.fetch.Branches                      488284                       # Number of branches that fetch encountered
system.cpu.fetch.CacheLines                    241756                       # Number of cache lines fetched
system.cpu.fetch.Cycles                       2209316                       # Number of cycles fetch has run and was not squashing or blocked
system.cpu.fetch.IcacheSquashes                  4642                       # Number of outstanding Icache misses that were squashed
system.cpu.fetch.Insts                        2831704                       # Number of instructions fetch has processed
system.cpu.fetch.MiscStallCycles                  109                       # Number of cycles fetch has spent waiting on interrupts, or bad addresses, or out of MSHRs
system.cpu.fetch.PendingQuiesceStallCycles           10                       # Number of stall cycles due to pending quiesce instructions
system.cpu.fetch.PendingTrapStallCycles           593                       # Number of stall cycles due to pending traps
system.cpu.fetch.SquashCycles                   48928                       # Number of cycles fetch has spent squashing
system.cpu.fetch.branchRate                  0.180000                       # Number of branch fetches per cycle
system.cpu.fetch.icacheStallCycles             328788                       # Number of cycles fetch is stalled on an Icache miss
system.cpu.fetch.predictedBranches             248914                       # Number of branches that fetch has predicted taken
system.cpu.fetch.rate                        1.043875                       # Number of inst fetches per cycle
system.cpu.fetch.rateDist::samples            2563280                       # Number of instructions fetched each cycle (Total)
system.cpu.fetch.rateDist::mean              1.934726                       # Number of instructions fetched each cycle (Total)
system.cpu.fetch.rateDist::stdev             1.931025                       # Number of instructions fetched each cycle (Total)
system.cpu.fetch.rateDist::underflows               0      0.00%      0.00% # Number of instructions fetched each cycle (Total)
system.cpu.fetch.rateDist::0                  1219532     47.58%     47.58% # Number of instructions fetched each cycle (Total)
system.cpu.fetch.rateDist::1                    74153      2.89%     50.47% # Number of instructions fetched each cycle (Total)
system.cpu.fetch.rateDist::2                    59113      2.31%     52.78% # Number of instructions fetched each cycle (Total)
system.cpu.fetch.rateDist::3                    75063      2.93%     55.70% # Number of instructions fetched each cycle (Total)
system.cpu.fetch.rateDist::4                  1135419     44.30%    100.00% # Number of instructions fetched each cycle (Total)
system.cpu.fetch.rateDist::overflows                0      0.00%    100.00% # Number of instructions fetched each cycle (Total)
system.cpu.fetch.rateDist::min_value                0                       # Number of instructions fetched each cycle (Total)
system.cpu.fetch.rateDist::max_value                4                       # Number of instructions fetched each cycle (Total)
system.cpu.fetch.rateDist::total              2563280                       # Number of instructions fetched each cycle (Total)
system.cpu.fp_regfile_reads                    118686                       # number of floating regfile reads
system.cpu.fp_regfile_writes                    64817                       # number of floating regfile writes
system.cpu.fuPool.fu_ticks_busy::IntALU(0)    216380400                       # Total ticks fu was busy
system.cpu.fuPool.fu_ticks_busy::IntALU(1)    216380400                       # Total ticks fu was busy
system.cpu.fuPool.fu_ticks_busy::IntALU(2)    216380400                       # Total ticks fu was busy
system.cpu.fuPool.fu_ticks_busy::IntALU(3)    216380400                       # Total ticks fu was busy
system.cpu.fuPool.fu_ticks_busy::IntALU(4)    216380400                       # Total ticks fu was busy
system.cpu.fuPool.fu_ticks_busy::IntALU(5)    216380400                       # Total ticks fu was busy
system.cpu.fuPool.fu_ticks_busy::IntMultDiv(0)      8730000                       # Total ticks fu was busy
system.cpu.fuPool.fu_ticks_busy::IntMultDiv(1)      8729200                       # Total ticks fu was busy
system.cpu.fuPool.fu_ticks_busy::FP_ALU(0)       549600                       # Total ticks fu was busy
system.cpu.fuPool.fu_ticks_busy::FP_ALU(1)       549600                       # Total ticks fu was busy
system.cpu.fuPool.fu_ticks_busy::FP_ALU(2)       549200                       # Total ticks fu was busy
system.cpu.fuPool.fu_ticks_busy::FP_ALU(3)       549200                       # Total ticks fu was busy
system.cpu.fuPool.fu_ticks_busy::FP_MultDiv(0)            0                       # Total ticks fu was busy
system.cpu.fuPool.fu_ticks_busy::FP_MultDiv(1)            0                       # Total ticks fu was busy
system.cpu.fuPool.fu_ticks_busy::SIMD_Unit(0)      4350400                       # Total ticks fu was busy
system.cpu.fuPool.fu_ticks_busy::SIMD_Unit(1)      4316800                       # Total ticks fu was busy
system.cpu.fuPool.fu_ticks_busy::SIMD_Unit(2)      4514800                       # Total ticks fu was busy
system.cpu.fuPool.fu_ticks_busy::SIMD_Unit(3)      4547200                       # Total ticks fu was busy
system.cpu.fuPool.fu_ticks_busy::PredALU(0)            0                       # Total ticks fu was busy
system.cpu.fuPool.fu_ticks_busy::RdWrPort(0)     77836800                       # Total ticks fu was busy
system.cpu.fuPool.fu_ticks_busy::RdWrPort(1)     77765600                       # Total ticks fu was busy
system.cpu.fuPool.fu_ticks_busy::RdWrPort(2)     77773200                       # Total ticks fu was busy
system.cpu.fuPool.fu_ticks_busy::RdWrPort(3)     77812800                       # Total ticks fu was busy
system.cpu.fuPool.fu_ticks_busy::IprPort(0)            0                       # Total ticks fu was busy
system.cpu.fuPool.fu_ticks_busy::total     1646856800                       # Total ticks fu was busy
system.cpu.icache.prefetcher.num_hwpf_issued            0                       # number of hwpf issued
system.cpu.icache.prefetcher.pfBufferHit            0                       # number of redundant prefetches already in prefetch queue
system.cpu.icache.prefetcher.pfIdentified            0                       # number of prefetch candidates identified
system.cpu.icache.prefetcher.pfInCache              0                       # number of redundant prefetches already in cache/mshr dropped
system.cpu.icache.prefetcher.pfRemovedFull            0                       # number of prefetches dropped due to prefetch queue size
system.cpu.icache.prefetcher.pfSpanPage             0                       # number of prefetches that crossed the page
system.cpu.idleCycles                          149406                       # Total number of cycles that the CPU has spent unscheduled due to idling
system.cpu.iew.branchMispredicts                28831                       # Number of branch mispredicts detected at execute
system.cpu.iew.exec_branches                   373667                       # Number of branches executed
system.cpu.iew.exec_nop                             0                       # number of nop insts executed
system.cpu.iew.exec_rate                     1.514626                       # Inst execution rate
system.cpu.iew.exec_refs                       764878                       # number of memory reference insts executed
system.cpu.iew.exec_stores                     190534                       # Number of stores executed
system.cpu.iew.exec_swp                             0                       # number of swp insts executed
system.cpu.iew.iewBlockCycles                  680586                       # Number of cycles IEW is blocking
system.cpu.iew.iewDispLoadInsts                604976                       # Number of dispatched load instructions
system.cpu.iew.iewDispNonSpecInsts                929                       # Number of dispatched non-speculative instructions
system.cpu.iew.iewDispSquashedInsts               638                       # Number of squashed instructions skipped by dispatch
system.cpu.iew.iewDispStoreInsts               201217                       # Number of dispatched store instructions
system.cpu.iew.iewDispatchedInsts             4462740                       # Number of instructions dispatched to IQ
system.cpu.iew.iewExecLoadInsts                574344                       # Number of load instructions executed
system.cpu.iew.iewExecSquashedInsts             34547                       # Number of squashed instructions skipped in execute
system.cpu.iew.iewExecutedInsts               4108705                       # Number of executed instructions
system.cpu.iew.iewIQFullEvents                   3274                       # Number of times the IQ has become full, causing a stall
system.cpu.iew.iewIdleCycles                        0                       # Number of cycles IEW is idle
system.cpu.iew.iewLSQFullEvents                  9726                       # Number of times the LSQ has become full, causing a stall
system.cpu.iew.iewSquashCycles                  24464                       # Number of cycles IEW is squashing
system.cpu.iew.iewUnblockCycles                 15794                       # Number of cycles IEW is unblocking
system.cpu.iew.lsq.thread0.blockedLoads             0                       # Number of blocked loads due to partial load-store forwarding
system.cpu.iew.lsq.thread0.cacheBlocked           606                       # Number of times an access to memory failed due to the cache being blocked
system.cpu.iew.lsq.thread0.forwLoads            39960                       # Number of loads that had data forwarded from stores
system.cpu.iew.lsq.thread0.ignoredResponses          237                       # Number of memory responses ignored because the instruction is squashed
system.cpu.iew.lsq.thread0.invAddrLoads             0                       # Number of loads ignored due to an invalid address
system.cpu.iew.lsq.thread0.invAddrSwpfs             0                       # Number of software prefetches ignored due to an invalid address
system.cpu.iew.lsq.thread0.memOrderViolation           81                       # Number of memory ordering violations
system.cpu.iew.lsq.thread0.rescheduledLoads            0                       # Number of loads that were rescheduled
system.cpu.iew.lsq.thread0.squashedLoads       116780                       # Number of loads squashed
system.cpu.iew.lsq.thread0.squashedStores        31246                       # Number of stores squashed
system.cpu.iew.memOrderViolationEvents             81                       # Number of memory order violations
system.cpu.iew.predictedNotTakenIncorrect        20726                       # Number of branches that were predicted not taken incorrectly
system.cpu.iew.predictedTakenIncorrect           8105                       # Number of branches that were predicted taken incorrectly
system.cpu.iew.wb_consumers                   5769131                       # num instructions consuming a value
system.cpu.iew.wb_count                       4086619                       # cumulative count of insts written-back
system.cpu.iew.wb_fanout                     0.566342                       # average fanout of values written-back
system.cpu.iew.wb_producers                   3267301                       # num instructions producing a value
system.cpu.iew.wb_rate                       1.506484                       # insts written-back per cycle
system.cpu.iew.wb_sent                        4093520                       # cumulative count of insts sent to commit
system.cpu.int_regfile_reads                  6368985                       # number of integer regfile reads
system.cpu.int_regfile_writes                 3534869                       # number of integer regfile writes
system.cpu.ipc                               0.757733                       # IPC: Instructions Per Cycle
system.cpu.ipc_total                         0.757733                       # IPC: Total IPC of All Threads
system.cpu.iq.FU_type_0::No_OpClass             26110      0.63%      0.63% # Type of FU issued
system.cpu.iq.FU_type_0::IntAlu               3245707     78.34%     78.97% # Type of FU issued
system.cpu.iq.FU_type_0::IntMult                 1811      0.04%     79.01% # Type of FU issued
system.cpu.iq.FU_type_0::IntDiv                 41837      1.01%     80.02% # Type of FU issued
system.cpu.iq.FU_type_0::FloatAdd                4256      0.10%     80.12% # Type of FU issued
system.cpu.iq.FU_type_0::FloatCmp                   0      0.00%     80.12% # Type of FU issued
system.cpu.iq.FU_type_0::FloatCvt                1238      0.03%     80.15% # Type of FU issued
system.cpu.iq.FU_type_0::FloatMult                  0      0.00%     80.15% # Type of FU issued
system.cpu.iq.FU_type_0::FloatMultAcc               0      0.00%     80.15% # Type of FU issued
system.cpu.iq.FU_type_0::FloatDiv                   0      0.00%     80.15% # Type of FU issued
system.cpu.iq.FU_type_0::FloatMisc                  0      0.00%     80.15% # Type of FU issued
system.cpu.iq.FU_type_0::FloatSqrt                  0      0.00%     80.15% # Type of FU issued
system.cpu.iq.FU_type_0::SimdAdd                 6779      0.16%     80.32% # Type of FU issued
system.cpu.iq.FU_type_0::SimdAddAcc                 0      0.00%     80.32% # Type of FU issued
system.cpu.iq.FU_type_0::SimdAlu                14871      0.36%     80.68% # Type of FU issued
system.cpu.iq.FU_type_0::SimdCmp                    0      0.00%     80.68% # Type of FU issued
system.cpu.iq.FU_type_0::SimdCvt                13656      0.33%     81.01% # Type of FU issued
system.cpu.iq.FU_type_0::SimdMisc                7027      0.17%     81.18% # Type of FU issued
system.cpu.iq.FU_type_0::SimdMult                   0      0.00%     81.18% # Type of FU issued
system.cpu.iq.FU_type_0::SimdMultAcc                0      0.00%     81.18% # Type of FU issued
system.cpu.iq.FU_type_0::SimdShift               1990      0.05%     81.22% # Type of FU issued
system.cpu.iq.FU_type_0::SimdShiftAcc               0      0.00%     81.22% # Type of FU issued
system.cpu.iq.FU_type_0::SimdDiv                    0      0.00%     81.22% # Type of FU issued
system.cpu.iq.FU_type_0::SimdSqrt                   0      0.00%     81.22% # Type of FU issued
system.cpu.iq.FU_type_0::SimdFloatAdd               0      0.00%     81.22% # Type of FU issued
system.cpu.iq.FU_type_0::SimdFloatAlu               0      0.00%     81.22% # Type of FU issued
system.cpu.iq.FU_type_0::SimdFloatCmp               0      0.00%     81.22% # Type of FU issued
system.cpu.iq.FU_type_0::SimdFloatCvt               0      0.00%     81.22% # Type of FU issued
system.cpu.iq.FU_type_0::SimdFloatDiv               0      0.00%     81.22% # Type of FU issued
system.cpu.iq.FU_type_0::SimdFloatMisc              0      0.00%     81.22% # Type of FU issued
system.cpu.iq.FU_type_0::SimdFloatMult              0      0.00%     81.22% # Type of FU issued
system.cpu.iq.FU_type_0::SimdFloatMultAcc            0      0.00%     81.22% # Type of FU issued
system.cpu.iq.FU_type_0::SimdFloatSqrt              0      0.00%     81.22% # Type of FU issued
system.cpu.iq.FU_type_0::SimdReduceAdd              0      0.00%     81.22% # Type of FU issued
system.cpu.iq.FU_type_0::SimdReduceAlu              0      0.00%     81.22% # Type of FU issued
system.cpu.iq.FU_type_0::SimdReduceCmp              0      0.00%     81.22% # Type of FU issued
system.cpu.iq.FU_type_0::SimdFloatReduceAdd            0      0.00%     81.22% # Type of FU issued
system.cpu.iq.FU_type_0::SimdFloatReduceCmp            0      0.00%     81.22% # Type of FU issued
system.cpu.iq.FU_type_0::SimdAes                    0      0.00%     81.22% # Type of FU issued
system.cpu.iq.FU_type_0::SimdAesMix                 0      0.00%     81.22% # Type of FU issued
system.cpu.iq.FU_type_0::SimdSha1Hash               0      0.00%     81.22% # Type of FU issued
system.cpu.iq.FU_type_0::SimdSha1Hash2              0      0.00%     81.22% # Type of FU issued
system.cpu.iq.FU_type_0::SimdSha256Hash             0      0.00%     81.22% # Type of FU issued
system.cpu.iq.FU_type_0::SimdSha256Hash2            0      0.00%     81.22% # Type of FU issued
system.cpu.iq.FU_type_0::SimdShaSigma2              0      0.00%     81.22% # Type of FU issued
system.cpu.iq.FU_type_0::SimdShaSigma3              0      0.00%     81.22% # Type of FU issued
system.cpu.iq.FU_type_0::SimdPredAlu                0      0.00%     81.22% # Type of FU issued
system.cpu.iq.FU_type_0::MemRead               560265     13.52%     94.75% # Type of FU issued
system.cpu.iq.FU_type_0::MemWrite              179492      4.33%     99.08% # Type of FU issued
system.cpu.iq.FU_type_0::FloatMemRead           24451      0.59%     99.67% # Type of FU issued
system.cpu.iq.FU_type_0::FloatMemWrite          13765      0.33%    100.00% # Type of FU issued
system.cpu.iq.FU_type_0::IprAccess                  0      0.00%    100.00% # Type of FU issued
system.cpu.iq.FU_type_0::InstPrefetch               0      0.00%    100.00% # Type of FU issued
system.cpu.iq.FU_type_0::total                4143255                       # Type of FU issued
system.cpu.iq.fp_alu_accesses                   88995                       # Number of floating point alu accesses
system.cpu.iq.fp_inst_queue_reads              179238                       # Number of floating instruction queue reads
system.cpu.iq.fp_inst_queue_wakeup_accesses        85840                       # Number of floating instruction queue wakeup accesses
system.cpu.iq.fp_inst_queue_writes             127594                       # Number of floating instruction queue writes
system.cpu.iq.fu_busy_cnt                           0                       # FU busy when requested
system.cpu.iq.fu_busy_rate                          0                       # FU busy rate (busy events/executed inst)
system.cpu.iq.fu_full::No_OpClass                   0                       # attempts to use FU when none available
system.cpu.iq.fu_full::IntAlu                       0                       # attempts to use FU when none available
system.cpu.iq.fu_full::IntMult                      0                       # attempts to use FU when none available
system.cpu.iq.fu_full::IntDiv                       0                       # attempts to use FU when none available
system.cpu.iq.fu_full::FloatAdd                     0                       # attempts to use FU when none available
system.cpu.iq.fu_full::FloatCmp                     0                       # attempts to use FU when none available
system.cpu.iq.fu_full::FloatCvt                     0                       # attempts to use FU when none available
system.cpu.iq.fu_full::FloatMult                    0                       # attempts to use FU when none available
system.cpu.iq.fu_full::FloatMultAcc                 0                       # attempts to use FU when none available
system.cpu.iq.fu_full::FloatDiv                     0                       # attempts to use FU when none available
system.cpu.iq.fu_full::FloatMisc                    0                       # attempts to use FU when none available
system.cpu.iq.fu_full::FloatSqrt                    0                       # attempts to use FU when none available
system.cpu.iq.fu_full::SimdAdd                      0                       # attempts to use FU when none available
system.cpu.iq.fu_full::SimdAddAcc                   0                       # attempts to use FU when none available
system.cpu.iq.fu_full::SimdAlu                      0                       # attempts to use FU when none available
system.cpu.iq.fu_full::SimdCmp                      0                       # attempts to use FU when none available
system.cpu.iq.fu_full::SimdCvt                      0                       # attempts to use FU when none available
system.cpu.iq.fu_full::SimdMisc                     0                       # attempts to use FU when none available
system.cpu.iq.fu_full::SimdMult                     0                       # attempts to use FU when none available
system.cpu.iq.fu_full::SimdMultAcc                  0                       # attempts to use FU when none available
system.cpu.iq.fu_full::SimdShift                    0                       # attempts to use FU when none available
system.cpu.iq.fu_full::SimdShiftAcc                 0                       # attempts to use FU when none available
system.cpu.iq.fu_full::SimdDiv                      0                       # attempts to use FU when none available
system.cpu.iq.fu_full::SimdSqrt                     0                       # attempts to use FU when none available
system.cpu.iq.fu_full::SimdFloatAdd                 0                       # attempts to use FU when none available
system.cpu.iq.fu_full::SimdFloatAlu                 0                       # attempts to use FU when none available
system.cpu.iq.fu_full::SimdFloatCmp                 0                       # attempts to use FU when none available
system.cpu.iq.fu_full::SimdFloatCvt                 0                       # attempts to use FU when none available
system.cpu.iq.fu_full::SimdFloatDiv                 0                       # attempts to use FU when none available
system.cpu.iq.fu_full::SimdFloatMisc                0                       # attempts to use FU when none available
system.cpu.iq.fu_full::SimdFloatMult                0                       # attempts to use FU when none available
system.cpu.iq.fu_full::SimdFloatMultAcc             0                       # attempts to use FU when none available
system.cpu.iq.fu_full::SimdFloatSqrt                0                       # attempts to use FU when none available
system.cpu.iq.fu_full::SimdReduceAdd                0                       # attempts to use FU when none available
system.cpu.iq.fu_full::SimdReduceAlu                0                       # attempts to use FU when none available
system.cpu.iq.fu_full::SimdReduceCmp                0                       # attempts to use FU when none available
system.cpu.iq.fu_full::SimdFloatReduceAdd            0                       # attempts to use FU when none available
system.cpu.iq.fu_full::SimdFloatReduceCmp            0                       # attempts to use FU when none available
system.cpu.iq.fu_full::SimdAes                      0                       # attempts to use FU when none available
system.cpu.iq.fu_full::SimdAesMix                   0                       # attempts to use FU when none available
system.cpu.iq.fu_full::SimdSha1Hash                 0                       # attempts to use FU when none available
system.cpu.iq.fu_full::SimdSha1Hash2                0                       # attempts to use FU when none available
system.cpu.iq.fu_full::SimdSha256Hash               0                       # attempts to use FU when none available
system.cpu.iq.fu_full::SimdSha256Hash2              0                       # attempts to use FU when none available
system.cpu.iq.fu_full::SimdShaSigma2                0                       # attempts to use FU when none available
system.cpu.iq.fu_full::SimdShaSigma3                0                       # attempts to use FU when none available
system.cpu.iq.fu_full::SimdPredAlu                  0                       # attempts to use FU when none available
system.cpu.iq.fu_full::MemRead                      0                       # attempts to use FU when none available
system.cpu.iq.fu_full::MemWrite                     0                       # attempts to use FU when none available
system.cpu.iq.fu_full::FloatMemRead                 0                       # attempts to use FU when none available
system.cpu.iq.fu_full::FloatMemWrite                0                       # attempts to use FU when none available
system.cpu.iq.fu_full::IprAccess                    0                       # attempts to use FU when none available
system.cpu.iq.fu_full::InstPrefetch                 0                       # attempts to use FU when none available
system.cpu.iq.int_alu_accesses                4028150                       # Number of integer alu accesses
system.cpu.iq.int_inst_queue_reads           10688851                       # Number of integer instruction queue reads
system.cpu.iq.int_inst_queue_wakeup_accesses      4000779                       # Number of integer instruction queue wakeup accesses
system.cpu.iq.int_inst_queue_writes           5227109                       # Number of integer instruction queue writes
system.cpu.iq.iqInstsAdded                    4461626                       # Number of instructions added to the IQ (excludes non-spec)
system.cpu.iq.iqInstsIssued                   4143255                       # Number of instructions issued
system.cpu.iq.iqNonSpecInstsAdded                1114                       # Number of non-speculative instructions added to the IQ
system.cpu.iq.iqSquashedInstsExamined          891884                       # Number of squashed instructions iterated over during squash; mainly for profiling
system.cpu.iq.iqSquashedInstsIssued             18302                       # Number of squashed instructions issued
system.cpu.iq.iqSquashedNonSpecRemoved            382                       # Number of squashed non-spec instructions that were removed
system.cpu.iq.iqSquashedOperandsExamined      1321938                       # Number of squashed operands that are examined and possibly removed from graph
system.cpu.iq.issued_per_cycle::samples       2563280                       # Number of insts issued each cycle
system.cpu.iq.issued_per_cycle::mean         1.616388                       # Number of insts issued each cycle
system.cpu.iq.issued_per_cycle::stdev        1.668873                       # Number of insts issued each cycle
system.cpu.iq.issued_per_cycle::underflows            0      0.00%      0.00% # Number of insts issued each cycle
system.cpu.iq.issued_per_cycle::0             1162481     45.35%     45.35% # Number of insts issued each cycle
system.cpu.iq.issued_per_cycle::1              173740      6.78%     52.13% # Number of insts issued each cycle
system.cpu.iq.issued_per_cycle::2              300276     11.71%     63.84% # Number of insts issued each cycle
system.cpu.iq.issued_per_cycle::3              338169     13.19%     77.04% # Number of insts issued each cycle
system.cpu.iq.issued_per_cycle::4              588614     22.96%    100.00% # Number of insts issued each cycle
system.cpu.iq.issued_per_cycle::overflows            0      0.00%    100.00% # Number of insts issued each cycle
system.cpu.iq.issued_per_cycle::min_value            0                       # Number of insts issued each cycle
system.cpu.iq.issued_per_cycle::max_value            4                       # Number of insts issued each cycle
system.cpu.iq.issued_per_cycle::total         2563280                       # Number of insts issued each cycle
system.cpu.iq.rate                           1.527363                       # Inst issue rate
system.cpu.iq.vec_alu_accesses                      0                       # Number of vector alu accesses
system.cpu.iq.vec_inst_queue_reads                  0                       # Number of vector instruction queue reads
system.cpu.iq.vec_inst_queue_wakeup_accesses            0                       # Number of vector instruction queue wakeup accesses
system.cpu.iq.vec_inst_queue_writes                 0                       # Number of vector instruction queue writes
system.cpu.itb.rdAccesses                           0                       # TLB accesses on read requests
system.cpu.itb.rdMisses                             0                       # TLB misses on read requests
system.cpu.itb.wrAccesses                      241856                       # TLB accesses on write requests
system.cpu.itb.wrMisses                           339                       # TLB misses on write requests
system.cpu.memDep0.conflictingLoads             11534                       # Number of conflicting loads.
system.cpu.memDep0.conflictingStores             4160                       # Number of conflicting stores.
system.cpu.memDep0.insertedLoads               604976                       # Number of loads inserted to the mem dependence unit.
system.cpu.memDep0.insertedStores              201217                       # Number of stores inserted to the mem dependence unit.
system.cpu.misc_regfile_reads                 1548978                       # number of misc regfile reads
system.cpu.misc_regfile_writes                    675                       # number of misc regfile writes
system.cpu.numCycles                          2712686                       # number of cpu cycles simulated
system.cpu.numWorkItemsCompleted                    0                       # number of work items this cpu completed
system.cpu.numWorkItemsStarted                      0                       # number of work items this cpu started
system.cpu.process.numSyscalls                     56                       # Number of system calls
system.cpu.rename.BlockCycles                  829748                       # Number of cycles rename is blocking
system.cpu.rename.CommittedMaps               4902534                       # Number of HB maps that are committed
system.cpu.rename.FullRegisterEvents              256                       # Number of times there has been no free registers
system.cpu.rename.IQFullEvents                  46176                       # Number of times rename has blocked due to IQ full
system.cpu.rename.IdleCycles                   341917                       # Number of cycles rename is idle
system.cpu.rename.LQFullEvents                  25217                       # Number of times rename has blocked due to LQ full
system.cpu.rename.ROBFullEvents                  6456                       # Number of times rename has blocked due to ROB full
system.cpu.rename.RenameLookups              12033772                       # Number of register rename lookups that rename has made
system.cpu.rename.RenamedInsts                4605312                       # Number of instructions processed by rename
system.cpu.rename.RenamedOperands             6305394                       # Number of destination operands rename has renamed
system.cpu.rename.RunCycles                   1166844                       # Number of cycles rename is running
system.cpu.rename.SQFullEvents                  72526                       # Number of times rename has blocked due to SQ full
system.cpu.rename.SquashCycles                  24464                       # Number of cycles rename is squashing
system.cpu.rename.UnblockCycles                180742                       # Number of cycles rename is unblocking
system.cpu.rename.UndoneMaps                  1402837                       # Number of HB maps that are undone due to squashing
system.cpu.rename.fp_rename_lookups            150733                       # Number of floating rename lookups
system.cpu.rename.int_rename_lookups          7319057                       # Number of integer rename lookups
system.cpu.rename.serializeStallCycles          19565                       # count of cycles rename stalled for serializing inst
system.cpu.rename.serializingInsts                873                       # count of serializing insts renamed
system.cpu.rename.skidInsts                    204893                       # count of insts added to the skid buffer
system.cpu.rename.tempSerializingInsts            922                       # count of temporary serializing insts renamed
system.cpu.rob.rob_reads                      6191096                       # The number of ROB reads
system.cpu.rob.rob_writes                     9169581                       # The number of ROB writes
system.cpu.timesIdled                            1479                       # Number of times that the entire CPU went into an idle state and unscheduled itself
system.l2bus.snoop_filter.hit_multi_requests            8                       # Number of requests hitting in the snoop filter with multiple (>1) holders of the requested data.
system.l2bus.snoop_filter.hit_multi_snoops            0                       # Number of snoops hitting in the snoop filter with multiple (>1) holders of the requested data.
system.l2bus.snoop_filter.hit_single_requests        18160                       # Number of requests hitting in the snoop filter with a single holder of the requested data.
system.l2bus.snoop_filter.hit_single_snoops          410                       # Number of snoops hitting in the snoop filter with a single holder of the requested data.
system.l2bus.snoop_filter.tot_requests          37600                       # Total number of requests made to the snoop filter.
system.l2bus.snoop_filter.tot_snoops              410                       # Total number of snoops made to the snoop filter.
system.l2cache.prefetcher.num_hwpf_issued          778                       # number of hwpf issued
system.l2cache.prefetcher.pfBufferHit               0                       # number of redundant prefetches already in prefetch queue
system.l2cache.prefetcher.pfIdentified            778                       # number of prefetch candidates identified
system.l2cache.prefetcher.pfInCache                 0                       # number of redundant prefetches already in cache/mshr dropped
system.l2cache.prefetcher.pfRemovedFull             0                       # number of prefetches dropped due to prefetch queue size
system.l2cache.prefetcher.pfSpanPage              162                       # number of prefetches that crossed the page
system.membus.snoop_filter.hit_multi_requests            0                       # Number of requests hitting in the snoop filter with multiple (>1) holders of the requested data.
system.membus.snoop_filter.hit_multi_snoops            0                       # Number of snoops hitting in the snoop filter with multiple (>1) holders of the requested data.
system.membus.snoop_filter.hit_single_requests         9229                       # Number of requests hitting in the snoop filter with a single holder of the requested data.
system.membus.snoop_filter.hit_single_snoops            0                       # Number of snoops hitting in the snoop filter with a single holder of the requested data.
system.membus.snoop_filter.tot_requests         22576                       # Total number of requests made to the snoop filter.
system.membus.snoop_filter.tot_snoops               0                       # Total number of snoops made to the snoop filter.
system.membus.pwrStateResidencyTicks::UNDEFINED   1085074000                       # Cumulative time (in ticks) in various power states
system.membus.trans_dist::ReadResp              12004                       # Transaction distribution
system.membus.trans_dist::WritebackDirty         1337                       # Transaction distribution
system.membus.trans_dist::CleanEvict             7892                       # Transaction distribution
system.membus.trans_dist::ReadExReq              1343                       # Transaction distribution
system.membus.trans_dist::ReadExResp             1343                       # Transaction distribution
system.membus.trans_dist::ReadSharedReq         12004                       # Transaction distribution
system.membus.pkt_count_system.l2cache.mem_side::system.mem_ctrl.port        35923                       # Packet count per connected master and slave (bytes)
system.membus.pkt_count_system.l2cache.mem_side::total        35923                       # Packet count per connected master and slave (bytes)
system.membus.pkt_count::total                  35923                       # Packet count per connected master and slave (bytes)
system.membus.pkt_size_system.l2cache.mem_side::system.mem_ctrl.port       939776                       # Cumulative packet size per connected master and slave (bytes)
system.membus.pkt_size_system.l2cache.mem_side::total       939776                       # Cumulative packet size per connected master and slave (bytes)
system.membus.pkt_size::total                  939776                       # Cumulative packet size per connected master and slave (bytes)
system.membus.snoops                                0                       # Total snoops (count)
system.membus.snoopTraffic                          0                       # Total snoop traffic (bytes)
system.membus.snoop_fanout::samples             13347                       # Request fanout histogram
system.membus.snoop_fanout::mean                    0                       # Request fanout histogram
system.membus.snoop_fanout::stdev                   0                       # Request fanout histogram
system.membus.snoop_fanout::underflows              0      0.00%      0.00% # Request fanout histogram
system.membus.snoop_fanout::0                   13347    100.00%    100.00% # Request fanout histogram
system.membus.snoop_fanout::1                       0      0.00%    100.00% # Request fanout histogram
system.membus.snoop_fanout::overflows               0      0.00%    100.00% # Request fanout histogram
system.membus.snoop_fanout::min_value               0                       # Request fanout histogram
system.membus.snoop_fanout::max_value               0                       # Request fanout histogram
system.membus.snoop_fanout::total               13347                       # Request fanout histogram
system.membus.reqLayer2.occupancy            11199181                       # Layer occupancy (ticks)
system.membus.reqLayer2.utilization               1.0                       # Layer utilization (%)
system.membus.respLayer0.occupancy           28990719                       # Layer occupancy (ticks)
system.membus.respLayer0.utilization              2.7                       # Layer utilization (%)
system.l2bus.pwrStateResidencyTicks::UNDEFINED   1085074000                       # Cumulative time (in ticks) in various power states
system.l2bus.trans_dist::ReadResp               17361                       # Transaction distribution
system.l2bus.trans_dist::WritebackDirty          4107                       # Transaction distribution
system.l2bus.trans_dist::CleanEvict             23357                       # Transaction distribution
system.l2bus.trans_dist::HardPFReq               1078                       # Transaction distribution
system.l2bus.trans_dist::ReadExReq               2079                       # Transaction distribution
system.l2bus.trans_dist::ReadExResp              2079                       # Transaction distribution
system.l2bus.trans_dist::ReadSharedReq          17361                       # Transaction distribution
system.l2bus.pkt_count_system.cpu.icache.mem_side::system.l2cache.cpu_side         7623                       # Packet count per connected master and slave (bytes)
system.l2bus.pkt_count_system.cpu.dcache.mem_side::system.l2cache.cpu_side        49415                       # Packet count per connected master and slave (bytes)
system.l2bus.pkt_count::total                   57038                       # Packet count per connected master and slave (bytes)
system.l2bus.pkt_size_system.cpu.icache.mem_side::system.l2cache.cpu_side       168000                       # Cumulative packet size per connected master and slave (bytes)
system.l2bus.pkt_size_system.cpu.dcache.mem_side::system.l2cache.cpu_side      1253312                       # Cumulative packet size per connected master and slave (bytes)
system.l2bus.pkt_size::total                  1421312                       # Cumulative packet size per connected master and slave (bytes)
system.l2bus.snoops                             10384                       # Total snoops (count)
system.l2bus.snoopTraffic                       85696                       # Total snoop traffic (bytes)
system.l2bus.snoop_fanout::samples              29822                       # Request fanout histogram
system.l2bus.snoop_fanout::mean              0.014016                       # Request fanout histogram
system.l2bus.snoop_fanout::stdev             0.117561                       # Request fanout histogram
system.l2bus.snoop_fanout::underflows               0      0.00%      0.00% # Request fanout histogram
system.l2bus.snoop_fanout::0                    29404     98.60%     98.60% # Request fanout histogram
system.l2bus.snoop_fanout::1                      418      1.40%    100.00% # Request fanout histogram
system.l2bus.snoop_fanout::2                        0      0.00%    100.00% # Request fanout histogram
system.l2bus.snoop_fanout::overflows                0      0.00%    100.00% # Request fanout histogram
system.l2bus.snoop_fanout::min_value                0                       # Request fanout histogram
system.l2bus.snoop_fanout::max_value                1                       # Request fanout histogram
system.l2bus.snoop_fanout::total                29822                       # Request fanout histogram
system.l2bus.respLayer1.occupancy            20175999                       # Layer occupancy (ticks)
system.l2bus.respLayer1.utilization               1.9                       # Layer utilization (%)
system.l2bus.reqLayer0.occupancy             18642446                       # Layer occupancy (ticks)
system.l2bus.reqLayer0.utilization                1.7                       # Layer utilization (%)
system.l2bus.respLayer0.occupancy             3152799                       # Layer occupancy (ticks)
system.l2bus.respLayer0.utilization               0.3                       # Layer utilization (%)
system.clk_domain.clock                           400                       # Clock period in ticks
system.clk_domain.voltage_domain.voltage            1                       # Voltage in Volts
system.cpu.pwrStateResidencyTicks::ON      1085074000                       # Cumulative time (in ticks) in various power states
system.cpu.icache.pwrStateResidencyTicks::UNDEFINED   1085074000                       # Cumulative time (in ticks) in various power states
system.cpu.icache.demand_hits::.cpu.inst       238430                       # number of demand (read+write) hits
system.cpu.icache.demand_hits::total           238430                       # number of demand (read+write) hits
system.cpu.icache.overall_hits::.cpu.inst       238430                       # number of overall hits
system.cpu.icache.overall_hits::total          238430                       # number of overall hits
system.cpu.icache.demand_misses::.cpu.inst         3325                       # number of demand (read+write) misses
system.cpu.icache.demand_misses::total           3325                       # number of demand (read+write) misses
system.cpu.icache.overall_misses::.cpu.inst         3325                       # number of overall misses
system.cpu.icache.overall_misses::total          3325                       # number of overall misses
system.cpu.icache.demand_miss_latency::.cpu.inst    166906000                       # number of demand (read+write) miss cycles
system.cpu.icache.demand_miss_latency::total    166906000                       # number of demand (read+write) miss cycles
system.cpu.icache.overall_miss_latency::.cpu.inst    166906000                       # number of overall miss cycles
system.cpu.icache.overall_miss_latency::total    166906000                       # number of overall miss cycles
system.cpu.icache.demand_accesses::.cpu.inst       241755                       # number of demand (read+write) accesses
system.cpu.icache.demand_accesses::total       241755                       # number of demand (read+write) accesses
system.cpu.icache.overall_accesses::.cpu.inst       241755                       # number of overall (read+write) accesses
system.cpu.icache.overall_accesses::total       241755                       # number of overall (read+write) accesses
system.cpu.icache.demand_miss_rate::.cpu.inst     0.013754                       # miss rate for demand accesses
system.cpu.icache.demand_miss_rate::total     0.013754                       # miss rate for demand accesses
system.cpu.icache.overall_miss_rate::.cpu.inst     0.013754                       # miss rate for overall accesses
system.cpu.icache.overall_miss_rate::total     0.013754                       # miss rate for overall accesses
system.cpu.icache.demand_avg_miss_latency::.cpu.inst 50197.293233                       # average overall miss latency
system.cpu.icache.demand_avg_miss_latency::total 50197.293233                       # average overall miss latency
system.cpu.icache.overall_avg_miss_latency::.cpu.inst 50197.293233                       # average overall miss latency
system.cpu.icache.overall_avg_miss_latency::total 50197.293233                       # average overall miss latency
system.cpu.icache.blocked_cycles::no_mshrs           39                       # number of cycles access was blocked
system.cpu.icache.blocked_cycles::no_targets            0                       # number of cycles access was blocked
system.cpu.icache.blocked::no_mshrs                 2                       # number of cycles access was blocked
system.cpu.icache.blocked::no_targets               0                       # number of cycles access was blocked
system.cpu.icache.avg_blocked_cycles::no_mshrs    19.500000                       # average number of cycles each access was blocked
system.cpu.icache.avg_blocked_cycles::no_targets          nan                       # average number of cycles each access was blocked
system.cpu.icache.demand_mshr_hits::.cpu.inst          698                       # number of demand (read+write) MSHR hits
system.cpu.icache.demand_mshr_hits::total          698                       # number of demand (read+write) MSHR hits
system.cpu.icache.overall_mshr_hits::.cpu.inst          698                       # number of overall MSHR hits
system.cpu.icache.overall_mshr_hits::total          698                       # number of overall MSHR hits
system.cpu.icache.demand_mshr_misses::.cpu.inst         2627                       # number of demand (read+write) MSHR misses
system.cpu.icache.demand_mshr_misses::total         2627                       # number of demand (read+write) MSHR misses
system.cpu.icache.overall_mshr_misses::.cpu.inst         2627                       # number of overall MSHR misses
system.cpu.icache.overall_mshr_misses::total         2627                       # number of overall MSHR misses
system.cpu.icache.demand_mshr_miss_latency::.cpu.inst    132964800                       # number of demand (read+write) MSHR miss cycles
system.cpu.icache.demand_mshr_miss_latency::total    132964800                       # number of demand (read+write) MSHR miss cycles
system.cpu.icache.overall_mshr_miss_latency::.cpu.inst    132964800                       # number of overall MSHR miss cycles
system.cpu.icache.overall_mshr_miss_latency::total    132964800                       # number of overall MSHR miss cycles
system.cpu.icache.demand_mshr_miss_rate::.cpu.inst     0.010866                       # mshr miss rate for demand accesses
system.cpu.icache.demand_mshr_miss_rate::total     0.010866                       # mshr miss rate for demand accesses
system.cpu.icache.overall_mshr_miss_rate::.cpu.inst     0.010866                       # mshr miss rate for overall accesses
system.cpu.icache.overall_mshr_miss_rate::total     0.010866                       # mshr miss rate for overall accesses
system.cpu.icache.demand_avg_mshr_miss_latency::.cpu.inst 50614.693567                       # average overall mshr miss latency
system.cpu.icache.demand_avg_mshr_miss_latency::total 50614.693567                       # average overall mshr miss latency
system.cpu.icache.overall_avg_mshr_miss_latency::.cpu.inst 50614.693567                       # average overall mshr miss latency
system.cpu.icache.overall_avg_mshr_miss_latency::total 50614.693567                       # average overall mshr miss latency
system.cpu.icache.replacements                   2371                       # number of replacements
system.cpu.icache.ReadReq_hits::.cpu.inst       238430                       # number of ReadReq hits
system.cpu.icache.ReadReq_hits::total          238430                       # number of ReadReq hits
system.cpu.icache.ReadReq_misses::.cpu.inst         3325                       # number of ReadReq misses
system.cpu.icache.ReadReq_misses::total          3325                       # number of ReadReq misses
system.cpu.icache.ReadReq_miss_latency::.cpu.inst    166906000                       # number of ReadReq miss cycles
system.cpu.icache.ReadReq_miss_latency::total    166906000                       # number of ReadReq miss cycles
system.cpu.icache.ReadReq_accesses::.cpu.inst       241755                       # number of ReadReq accesses(hits+misses)
system.cpu.icache.ReadReq_accesses::total       241755                       # number of ReadReq accesses(hits+misses)
system.cpu.icache.ReadReq_miss_rate::.cpu.inst     0.013754                       # miss rate for ReadReq accesses
system.cpu.icache.ReadReq_miss_rate::total     0.013754                       # miss rate for ReadReq accesses
system.cpu.icache.ReadReq_avg_miss_latency::.cpu.inst 50197.293233                       # average ReadReq miss latency
system.cpu.icache.ReadReq_avg_miss_latency::total 50197.293233                       # average ReadReq miss latency
system.cpu.icache.ReadReq_mshr_hits::.cpu.inst          698                       # number of ReadReq MSHR hits
system.cpu.icache.ReadReq_mshr_hits::total          698                       # number of ReadReq MSHR hits
system.cpu.icache.ReadReq_mshr_misses::.cpu.inst         2627                       # number of ReadReq MSHR misses
system.cpu.icache.ReadReq_mshr_misses::total         2627                       # number of ReadReq MSHR misses
system.cpu.icache.ReadReq_mshr_miss_latency::.cpu.inst    132964800                       # number of ReadReq MSHR miss cycles
system.cpu.icache.ReadReq_mshr_miss_latency::total    132964800                       # number of ReadReq MSHR miss cycles
system.cpu.icache.ReadReq_mshr_miss_rate::.cpu.inst     0.010866                       # mshr miss rate for ReadReq accesses
system.cpu.icache.ReadReq_mshr_miss_rate::total     0.010866                       # mshr miss rate for ReadReq accesses
system.cpu.icache.ReadReq_avg_mshr_miss_latency::.cpu.inst 50614.693567                       # average ReadReq mshr miss latency
system.cpu.icache.ReadReq_avg_mshr_miss_latency::total 50614.693567                       # average ReadReq mshr miss latency
system.cpu.icache.prefetcher.pwrStateResidencyTicks::UNDEFINED   1085074000                       # Cumulative time (in ticks) in various power states
system.cpu.icache.tags.pwrStateResidencyTicks::UNDEFINED   1085074000                       # Cumulative time (in ticks) in various power states
system.cpu.icache.tags.tagsinuse           253.463005                       # Cycle average of tags in use
system.cpu.icache.tags.total_refs              213959                       # Total number of references to valid blocks.
system.cpu.icache.tags.sampled_refs              2371                       # Sample count of references to valid blocks.
system.cpu.icache.tags.avg_refs             90.239983                       # Average number of references to valid blocks.
system.cpu.icache.tags.warmup_cycle             66400                       # Cycle when the warmup percentage was hit.
system.cpu.icache.tags.occ_blocks::.cpu.inst   253.463005                       # Average occupied blocks per requestor
system.cpu.icache.tags.occ_percent::.cpu.inst     0.990090                       # Average percentage of cache occupancy
system.cpu.icache.tags.occ_percent::total     0.990090                       # Average percentage of cache occupancy
system.cpu.icache.tags.occ_task_id_blocks::1024          256                       # Occupied blocks per task id
system.cpu.icache.tags.age_task_id_blocks_1024::0           74                       # Occupied blocks per task id
system.cpu.icache.tags.age_task_id_blocks_1024::1          157                       # Occupied blocks per task id
system.cpu.icache.tags.age_task_id_blocks_1024::2           25                       # Occupied blocks per task id
system.cpu.icache.tags.occ_task_id_percent::1024            1                       # Percentage of cache occupancy per task id
system.cpu.icache.tags.tag_accesses            486137                       # Number of tag accesses
system.cpu.icache.tags.data_accesses           486137                       # Number of data accesses
system.cpu.dtb.walker.pwrStateResidencyTicks::UNDEFINED   1085074000                       # Cumulative time (in ticks) in various power states
system.cpu.interrupts.clk_domain.clock           6400                       # Clock period in ticks
system.cpu.itb.walker.pwrStateResidencyTicks::UNDEFINED   1085074000                       # Cumulative time (in ticks) in various power states
system.cpu.dcache.pwrStateResidencyTicks::UNDEFINED   1085074000                       # Cumulative time (in ticks) in various power states
system.cpu.dcache.demand_hits::.cpu.data       666682                       # number of demand (read+write) hits
system.cpu.dcache.demand_hits::total           666682                       # number of demand (read+write) hits
system.cpu.dcache.overall_hits::.cpu.data       666682                       # number of overall hits
system.cpu.dcache.overall_hits::total          666682                       # number of overall hits
system.cpu.dcache.demand_misses::.cpu.data        34834                       # number of demand (read+write) misses
system.cpu.dcache.demand_misses::total          34834                       # number of demand (read+write) misses
system.cpu.dcache.overall_misses::.cpu.data        34834                       # number of overall misses
system.cpu.dcache.overall_misses::total         34834                       # number of overall misses
system.cpu.dcache.demand_miss_latency::.cpu.data   1688359599                       # number of demand (read+write) miss cycles
system.cpu.dcache.demand_miss_latency::total   1688359599                       # number of demand (read+write) miss cycles
system.cpu.dcache.overall_miss_latency::.cpu.data   1688359599                       # number of overall miss cycles
system.cpu.dcache.overall_miss_latency::total   1688359599                       # number of overall miss cycles
system.cpu.dcache.demand_accesses::.cpu.data       701516                       # number of demand (read+write) accesses
system.cpu.dcache.demand_accesses::total       701516                       # number of demand (read+write) accesses
system.cpu.dcache.overall_accesses::.cpu.data       701516                       # number of overall (read+write) accesses
system.cpu.dcache.overall_accesses::total       701516                       # number of overall (read+write) accesses
system.cpu.dcache.demand_miss_rate::.cpu.data     0.049655                       # miss rate for demand accesses
system.cpu.dcache.demand_miss_rate::total     0.049655                       # miss rate for demand accesses
system.cpu.dcache.overall_miss_rate::.cpu.data     0.049655                       # miss rate for overall accesses
system.cpu.dcache.overall_miss_rate::total     0.049655                       # miss rate for overall accesses
system.cpu.dcache.demand_avg_miss_latency::.cpu.data 48468.725929                       # average overall miss latency
system.cpu.dcache.demand_avg_miss_latency::total 48468.725929                       # average overall miss latency
system.cpu.dcache.overall_avg_miss_latency::.cpu.data 48468.725929                       # average overall miss latency
system.cpu.dcache.overall_avg_miss_latency::total 48468.725929                       # average overall miss latency
system.cpu.dcache.blocked_cycles::no_mshrs        27506                       # number of cycles access was blocked
system.cpu.dcache.blocked_cycles::no_targets          138                       # number of cycles access was blocked
system.cpu.dcache.blocked::no_mshrs               742                       # number of cycles access was blocked
system.cpu.dcache.blocked::no_targets               1                       # number of cycles access was blocked
system.cpu.dcache.avg_blocked_cycles::no_mshrs    37.070081                       # average number of cycles each access was blocked
system.cpu.dcache.avg_blocked_cycles::no_targets          138                       # average number of cycles each access was blocked
system.cpu.dcache.unused_prefetches              1742                       # number of HardPF blocks evicted w/o reference
system.cpu.dcache.writebacks::.writebacks         2770                       # number of writebacks
system.cpu.dcache.writebacks::total              2770                       # number of writebacks
system.cpu.dcache.demand_mshr_hits::.cpu.data        22249                       # number of demand (read+write) MSHR hits
system.cpu.dcache.demand_mshr_hits::total        22249                       # number of demand (read+write) MSHR hits
system.cpu.dcache.overall_mshr_hits::.cpu.data        22249                       # number of overall MSHR hits
system.cpu.dcache.overall_mshr_hits::total        22249                       # number of overall MSHR hits
system.cpu.dcache.demand_mshr_misses::.cpu.data        12585                       # number of demand (read+write) MSHR misses
system.cpu.dcache.demand_mshr_misses::total        12585                       # number of demand (read+write) MSHR misses
system.cpu.dcache.overall_mshr_misses::.cpu.data        12585                       # number of overall MSHR misses
system.cpu.dcache.overall_mshr_misses::.cpu.dcache.prefetcher         4228                       # number of overall MSHR misses
system.cpu.dcache.overall_mshr_misses::total        16813                       # number of overall MSHR misses
system.cpu.dcache.demand_mshr_miss_latency::.cpu.data    576560799                       # number of demand (read+write) MSHR miss cycles
system.cpu.dcache.demand_mshr_miss_latency::total    576560799                       # number of demand (read+write) MSHR miss cycles
system.cpu.dcache.overall_mshr_miss_latency::.cpu.data    576560799                       # number of overall MSHR miss cycles
system.cpu.dcache.overall_mshr_miss_latency::.cpu.dcache.prefetcher    241482724                       # number of overall MSHR miss cycles
system.cpu.dcache.overall_mshr_miss_latency::total    818043523                       # number of overall MSHR miss cycles
system.cpu.dcache.demand_mshr_miss_rate::.cpu.data     0.017940                       # mshr miss rate for demand accesses
system.cpu.dcache.demand_mshr_miss_rate::total     0.017940                       # mshr miss rate for demand accesses
system.cpu.dcache.overall_mshr_miss_rate::.cpu.data     0.017940                       # mshr miss rate for overall accesses
system.cpu.dcache.overall_mshr_miss_rate::.cpu.dcache.prefetcher          inf                       # mshr miss rate for overall accesses
system.cpu.dcache.overall_mshr_miss_rate::total     0.023967                       # mshr miss rate for overall accesses
system.cpu.dcache.demand_avg_mshr_miss_latency::.cpu.data 45813.333254                       # average overall mshr miss latency
system.cpu.dcache.demand_avg_mshr_miss_latency::total 45813.333254                       # average overall mshr miss latency
system.cpu.dcache.overall_avg_mshr_miss_latency::.cpu.data 45813.333254                       # average overall mshr miss latency
system.cpu.dcache.overall_avg_mshr_miss_latency::.cpu.dcache.prefetcher 57115.119205                       # average overall mshr miss latency
system.cpu.dcache.overall_avg_mshr_miss_latency::total 48655.416820                       # average overall mshr miss latency
system.cpu.dcache.replacements                  15789                       # number of replacements
system.cpu.dcache.ReadReq_hits::.cpu.data       498823                       # number of ReadReq hits
system.cpu.dcache.ReadReq_hits::total          498823                       # number of ReadReq hits
system.cpu.dcache.ReadReq_misses::.cpu.data        32717                       # number of ReadReq misses
system.cpu.dcache.ReadReq_misses::total         32717                       # number of ReadReq misses
system.cpu.dcache.ReadReq_miss_latency::.cpu.data   1583603200                       # number of ReadReq miss cycles
system.cpu.dcache.ReadReq_miss_latency::total   1583603200                       # number of ReadReq miss cycles
system.cpu.dcache.ReadReq_accesses::.cpu.data       531540                       # number of ReadReq accesses(hits+misses)
system.cpu.dcache.ReadReq_accesses::total       531540                       # number of ReadReq accesses(hits+misses)
system.cpu.dcache.ReadReq_miss_rate::.cpu.data     0.061551                       # miss rate for ReadReq accesses
system.cpu.dcache.ReadReq_miss_rate::total     0.061551                       # miss rate for ReadReq accesses
system.cpu.dcache.ReadReq_avg_miss_latency::.cpu.data 48403.068741                       # average ReadReq miss latency
system.cpu.dcache.ReadReq_avg_miss_latency::total 48403.068741                       # average ReadReq miss latency
system.cpu.dcache.ReadReq_mshr_hits::.cpu.data        22211                       # number of ReadReq MSHR hits
system.cpu.dcache.ReadReq_mshr_hits::total        22211                       # number of ReadReq MSHR hits
system.cpu.dcache.ReadReq_mshr_misses::.cpu.data        10506                       # number of ReadReq MSHR misses
system.cpu.dcache.ReadReq_mshr_misses::total        10506                       # number of ReadReq MSHR misses
system.cpu.dcache.ReadReq_mshr_miss_latency::.cpu.data    474971600                       # number of ReadReq MSHR miss cycles
system.cpu.dcache.ReadReq_mshr_miss_latency::total    474971600                       # number of ReadReq MSHR miss cycles
system.cpu.dcache.ReadReq_mshr_miss_rate::.cpu.data     0.019765                       # mshr miss rate for ReadReq accesses
system.cpu.dcache.ReadReq_mshr_miss_rate::total     0.019765                       # mshr miss rate for ReadReq accesses
system.cpu.dcache.ReadReq_avg_mshr_miss_latency::.cpu.data 45209.556444                       # average ReadReq mshr miss latency
system.cpu.dcache.ReadReq_avg_mshr_miss_latency::total 45209.556444                       # average ReadReq mshr miss latency
system.cpu.dcache.WriteReq_hits::.cpu.data       167859                       # number of WriteReq hits
system.cpu.dcache.WriteReq_hits::total         167859                       # number of WriteReq hits
system.cpu.dcache.WriteReq_misses::.cpu.data         2117                       # number of WriteReq misses
system.cpu.dcache.WriteReq_misses::total         2117                       # number of WriteReq misses
system.cpu.dcache.WriteReq_miss_latency::.cpu.data    104756399                       # number of WriteReq miss cycles
system.cpu.dcache.WriteReq_miss_latency::total    104756399                       # number of WriteReq miss cycles
system.cpu.dcache.WriteReq_accesses::.cpu.data       169976                       # number of WriteReq accesses(hits+misses)
system.cpu.dcache.WriteReq_accesses::total       169976                       # number of WriteReq accesses(hits+misses)
system.cpu.dcache.WriteReq_miss_rate::.cpu.data     0.012455                       # miss rate for WriteReq accesses
system.cpu.dcache.WriteReq_miss_rate::total     0.012455                       # miss rate for WriteReq accesses
system.cpu.dcache.WriteReq_avg_miss_latency::.cpu.data 49483.419462                       # average WriteReq miss latency
system.cpu.dcache.WriteReq_avg_miss_latency::total 49483.419462                       # average WriteReq miss latency
system.cpu.dcache.WriteReq_mshr_hits::.cpu.data           38                       # number of WriteReq MSHR hits
system.cpu.dcache.WriteReq_mshr_hits::total           38                       # number of WriteReq MSHR hits
system.cpu.dcache.WriteReq_mshr_misses::.cpu.data         2079                       # number of WriteReq MSHR misses
system.cpu.dcache.WriteReq_mshr_misses::total         2079                       # number of WriteReq MSHR misses
system.cpu.dcache.WriteReq_mshr_miss_latency::.cpu.data    101589199                       # number of WriteReq MSHR miss cycles
system.cpu.dcache.WriteReq_mshr_miss_latency::total    101589199                       # number of WriteReq MSHR miss cycles
[...]
system.l2cache.overall_mshr_miss_rate::.cpu.data     0.529762                       # mshr miss rate for overall accesses
system.l2cache.overall_mshr_miss_rate::.cpu.dcache.prefetcher     0.777778                       # mshr miss rate for overall accesses
system.l2cache.overall_mshr_miss_rate::.l2cache.prefetcher          inf                       # mshr miss rate for overall accesses
system.l2cache.overall_mshr_miss_rate::total     0.266806                       # mshr miss rate for overall accesses
system.l2cache.demand_avg_mshr_miss_latency::.cpu.inst 58879.197995                       # average overall mshr miss latency
system.l2cache.demand_avg_mshr_miss_latency::.cpu.data 59662.921348                       # average overall mshr miss latency
system.l2cache.demand_avg_mshr_miss_latency::.cpu.dcache.prefetcher 59141.803571                       # average overall mshr miss latency
system.l2cache.demand_avg_mshr_miss_latency::total 59122.813586                       # average overall mshr miss latency
system.l2cache.overall_avg_mshr_miss_latency::.cpu.inst 58879.197995                       # average overall mshr miss latency
system.l2cache.overall_avg_mshr_miss_latency::.cpu.data 59662.921348                       # average overall mshr miss latency
system.l2cache.overall_avg_mshr_miss_latency::.cpu.dcache.prefetcher 59141.803571                       # average overall mshr miss latency
system.l2cache.overall_avg_mshr_miss_latency::.l2cache.prefetcher 59398.666667                       # average overall mshr miss latency
system.l2cache.overall_avg_mshr_miss_latency::total 59125.403756                       # average overall mshr miss latency
system.l2cache.replacements                       649                       # number of replacements
system.l2cache.WritebackDirty_hits::.writebacks          112                       # number of WritebackDirty hits
system.l2cache.WritebackDirty_hits::total          112                       # number of WritebackDirty hits
system.l2cache.WritebackDirty_accesses::.writebacks          112                       # number of WritebackDirty accesses(hits+misses)
system.l2cache.WritebackDirty_accesses::total          112                       # number of WritebackDirty accesses(hits+misses)
system.l2cache.CleanEvict_mshr_misses::.writebacks           25                       # number of CleanEvict MSHR misses
system.l2cache.CleanEvict_mshr_misses::total           25                       # number of CleanEvict MSHR misses
system.l2cache.CleanEvict_mshr_miss_rate::.writebacks          inf                       # mshr miss rate for CleanEvict accesses
system.l2cache.CleanEvict_mshr_miss_rate::total          inf                       # mshr miss rate for CleanEvict accesses
system.l2cache.HardPFReq_mshr_misses::.l2cache.prefetcher            6                       # number of HardPFReq MSHR misses
system.l2cache.HardPFReq_mshr_misses::total            6                       # number of HardPFReq MSHR misses
system.l2cache.HardPFReq_mshr_miss_latency::.l2cache.prefetcher       356392                       # number of HardPFReq MSHR miss cycles
system.l2cache.HardPFReq_mshr_miss_latency::total       356392                       # number of HardPFReq MSHR miss cycles
system.l2cache.HardPFReq_mshr_miss_rate::.l2cache.prefetcher          inf                       # mshr miss rate for HardPFReq accesses
system.l2cache.HardPFReq_mshr_miss_rate::total          inf                       # mshr miss rate for HardPFReq accesses
system.l2cache.HardPFReq_avg_mshr_miss_latency::.l2cache.prefetcher 59398.666667                       # average HardPFReq mshr miss latency
system.l2cache.HardPFReq_avg_mshr_miss_latency::total 59398.666667                       # average HardPFReq mshr miss latency
system.l2cache.UpgradeReq_hits::.cpu.data            1                       # number of UpgradeReq hits
system.l2cache.UpgradeReq_hits::total               1                       # number of UpgradeReq hits
system.l2cache.UpgradeReq_accesses::.cpu.data            1                       # number of UpgradeReq accesses(hits+misses)
system.l2cache.UpgradeReq_accesses::total            1                       # number of UpgradeReq accesses(hits+misses)
system.l2cache.ReadExReq_hits::.cpu.data            7                       # number of ReadExReq hits
system.l2cache.ReadExReq_hits::total                7                       # number of ReadExReq hits
system.l2cache.ReadExReq_misses::.cpu.data           23                       # number of ReadExReq misses
system.l2cache.ReadExReq_misses::total             23                       # number of ReadExReq misses
system.l2cache.ReadExReq_miss_latency::.cpu.data      1587600                       # number of ReadExReq miss cycles
system.l2cache.ReadExReq_miss_latency::total      1587600                       # number of ReadExReq miss cycles
system.l2cache.ReadExReq_accesses::.cpu.data           30                       # number of ReadExReq accesses(hits+misses)
system.l2cache.ReadExReq_accesses::total           30                       # number of ReadExReq accesses(hits+misses)
system.l2cache.ReadExReq_miss_rate::.cpu.data     0.766667                       # miss rate for ReadExReq accesses
system.l2cache.ReadExReq_miss_rate::total     0.766667                       # miss rate for ReadExReq accesses
system.l2cache.ReadExReq_avg_miss_latency::.cpu.data 69026.086957                       # average ReadExReq miss latency
system.l2cache.ReadExReq_avg_miss_latency::total 69026.086957                       # average ReadExReq miss latency
system.l2cache.ReadExReq_mshr_misses::.cpu.data           23                       # number of ReadExReq MSHR misses
system.l2cache.ReadExReq_mshr_misses::total           23                       # number of ReadExReq MSHR misses
system.l2cache.ReadExReq_mshr_miss_latency::.cpu.data      1403600                       # number of ReadExReq MSHR miss cycles
system.l2cache.ReadExReq_mshr_miss_latency::total      1403600                       # number of ReadExReq MSHR miss cycles
system.l2cache.ReadExReq_mshr_miss_rate::.cpu.data     0.766667                       # mshr miss rate for ReadExReq accesses
system.l2cache.ReadExReq_mshr_miss_rate::total     0.766667                       # mshr miss rate for ReadExReq accesses
system.l2cache.ReadExReq_avg_mshr_miss_latency::.cpu.data 61026.086957                       # average ReadExReq mshr miss latency
system.l2cache.ReadExReq_avg_mshr_miss_latency::total 61026.086957                       # average ReadExReq mshr miss latency
system.l2cache.ReadSharedReq_hits::.cpu.inst         1588                       # number of ReadSharedReq hits
system.l2cache.ReadSharedReq_hits::.cpu.data          150                       # number of ReadSharedReq hits
system.l2cache.ReadSharedReq_hits::.cpu.dcache.prefetcher           16                       # number of ReadSharedReq hits
system.l2cache.ReadSharedReq_hits::total         1754                       # number of ReadSharedReq hits
system.l2cache.ReadSharedReq_misses::.cpu.inst          399                       # number of ReadSharedReq misses
system.l2cache.ReadSharedReq_misses::.cpu.data          156                       # number of ReadSharedReq misses
system.l2cache.ReadSharedReq_misses::.cpu.dcache.prefetcher           56                       # number of ReadSharedReq misses
system.l2cache.ReadSharedReq_misses::total          611                       # number of ReadSharedReq misses
system.l2cache.ReadSharedReq_miss_latency::.cpu.inst     26676800                       # number of ReadSharedReq miss cycles
system.l2cache.ReadSharedReq_miss_latency::.cpu.data     10512800                       # number of ReadSharedReq miss cycles
system.l2cache.ReadSharedReq_miss_latency::.cpu.dcache.prefetcher      3759941                       # number of ReadSharedReq miss cycles
system.l2cache.ReadSharedReq_miss_latency::total     40949541                       # number of ReadSharedReq miss cycles
system.l2cache.ReadSharedReq_accesses::.cpu.inst         1987                       # number of ReadSharedReq accesses(hits+misses)
system.l2cache.ReadSharedReq_accesses::.cpu.data          306                       # number of ReadSharedReq accesses(hits+misses)
system.l2cache.ReadSharedReq_accesses::.cpu.dcache.prefetcher           72                       # number of ReadSharedReq accesses(hits+misses)
system.l2cache.ReadSharedReq_accesses::total         2365                       # number of ReadSharedReq accesses(hits+misses)
system.l2cache.ReadSharedReq_miss_rate::.cpu.inst     0.200805                       # miss rate for ReadSharedReq accesses
system.l2cache.ReadSharedReq_miss_rate::.cpu.data     0.509804                       # miss rate for ReadSharedReq accesses
system.l2cache.ReadSharedReq_miss_rate::.cpu.dcache.prefetcher     0.777778                       # miss rate for ReadSharedReq accesses
system.l2cache.ReadSharedReq_miss_rate::total     0.258351                       # miss rate for ReadSharedReq accesses
system.l2cache.ReadSharedReq_avg_miss_latency::.cpu.inst 66859.147870                       # average ReadSharedReq miss latency
system.l2cache.ReadSharedReq_avg_miss_latency::.cpu.data 67389.743590                       # average ReadSharedReq miss latency
system.l2cache.ReadSharedReq_avg_miss_latency::.cpu.dcache.prefetcher 67141.803571                       # average ReadSharedReq miss latency
system.l2cache.ReadSharedReq_avg_miss_latency::total 67020.525368                       # average ReadSharedReq miss latency
system.l2cache.ReadSharedReq_mshr_hits::.cpu.data            1                       # number of ReadSharedReq MSHR hits
system.l2cache.ReadSharedReq_mshr_hits::total            1                       # number of ReadSharedReq MSHR hits
system.l2cache.ReadSharedReq_mshr_misses::.cpu.inst          399                       # number of ReadSharedReq MSHR misses
system.l2cache.ReadSharedReq_mshr_misses::.cpu.data          155                       # number of ReadSharedReq MSHR misses
system.l2cache.ReadSharedReq_mshr_misses::.cpu.dcache.prefetcher           56                       # number of ReadSharedReq MSHR misses
system.l2cache.ReadSharedReq_mshr_misses::total          610                       # number of ReadSharedReq MSHR misses
system.l2cache.ReadSharedReq_mshr_miss_latency::.cpu.inst     23492800                       # number of ReadSharedReq MSHR miss cycles
system.l2cache.ReadSharedReq_mshr_miss_latency::.cpu.data      9216400                       # number of ReadSharedReq MSHR miss cycles
system.l2cache.ReadSharedReq_mshr_miss_latency::.cpu.dcache.prefetcher      3311941                       # number of ReadSharedReq MSHR miss cycles
system.l2cache.ReadSharedReq_mshr_miss_latency::total     36021141                       # number of ReadSharedReq MSHR miss cycles
system.l2cache.ReadSharedReq_mshr_miss_rate::.cpu.inst     0.200805                       # mshr miss rate for ReadSharedReq accesses
system.l2cache.ReadSharedReq_mshr_miss_rate::.cpu.data     0.506536                       # mshr miss rate for ReadSharedReq accesses
system.l2cache.ReadSharedReq_mshr_miss_rate::.cpu.dcache.prefetcher     0.777778                       # mshr miss rate for ReadSharedReq accesses
system.l2cache.ReadSharedReq_mshr_miss_rate::total     0.257928                       # mshr miss rate for ReadSharedReq accesses
system.l2cache.ReadSharedReq_avg_mshr_miss_latency::.cpu.inst 58879.197995                       # average ReadSharedReq mshr miss latency
system.l2cache.ReadSharedReq_avg_mshr_miss_latency::.cpu.data 59460.645161                       # average ReadSharedReq mshr miss latency
system.l2cache.ReadSharedReq_avg_mshr_miss_latency::.cpu.dcache.prefetcher 59141.803571                       # average ReadSharedReq mshr miss latency
system.l2cache.ReadSharedReq_avg_mshr_miss_latency::total 59051.050820                       # average ReadSharedReq mshr miss latency
system.l2cache.prefetcher.pwrStateResidencyTicks::UNDEFINED    132972400                       # Cumulative time (in ticks) in various power states
system.l2cache.tags.pwrStateResidencyTicks::UNDEFINED    132972400                       # Cumulative time (in ticks) in various power states
system.l2cache.tags.tagsinuse                    4096                       # Cycle average of tags in use
system.l2cache.tags.total_refs                  17374                       # Total number of references to valid blocks.
system.l2cache.tags.sampled_refs                 4745                       # Sample count of references to valid blocks.
system.l2cache.tags.avg_refs                 3.661538                       # Average number of references to valid blocks.
system.l2cache.tags.warmup_cycle                    0                       # Cycle when the warmup percentage was hit.
system.l2cache.tags.occ_blocks::.writebacks    34.815195                       # Average occupied blocks per requestor
system.l2cache.tags.occ_blocks::.cpu.inst  1125.254424                       # Average occupied blocks per requestor
system.l2cache.tags.occ_blocks::.cpu.data  1851.387626                       # Average occupied blocks per requestor
system.l2cache.tags.occ_blocks::.cpu.dcache.prefetcher   928.766330                       # Average occupied blocks per requestor
system.l2cache.tags.occ_blocks::.l2cache.prefetcher   155.776426                       # Average occupied blocks per requestor
system.l2cache.tags.occ_percent::.writebacks     0.008500                       # Average percentage of cache occupancy
system.l2cache.tags.occ_percent::.cpu.inst     0.274720                       # Average percentage of cache occupancy
system.l2cache.tags.occ_percent::.cpu.data     0.451999                       # Average percentage of cache occupancy
system.l2cache.tags.occ_percent::.cpu.dcache.prefetcher     0.226750                       # Average percentage of cache occupancy
system.l2cache.tags.occ_percent::.l2cache.prefetcher     0.038031                       # Average percentage of cache occupancy
system.l2cache.tags.occ_percent::total              1                       # Average percentage of cache occupancy
system.l2cache.tags.occ_task_id_blocks::1022         1028                       # Occupied blocks per task id
system.l2cache.tags.occ_task_id_blocks::1024         3068                       # Occupied blocks per task id
system.l2cache.tags.age_task_id_blocks_1022::0           12                       # Occupied blocks per task id
system.l2cache.tags.age_task_id_blocks_1022::1           32                       # Occupied blocks per task id
system.l2cache.tags.age_task_id_blocks_1022::2           19                       # Occupied blocks per task id
system.l2cache.tags.age_task_id_blocks_1022::4          965                       # Occupied blocks per task id
system.l2cache.tags.age_task_id_blocks_1024::0          169                       # Occupied blocks per task id
system.l2cache.tags.age_task_id_blocks_1024::1          146                       # Occupied blocks per task id
system.l2cache.tags.age_task_id_blocks_1024::2          271                       # Occupied blocks per task id
system.l2cache.tags.age_task_id_blocks_1024::4         2482                       # Occupied blocks per task id
system.l2cache.tags.occ_task_id_percent::1022     0.250977                       # Percentage of cache occupancy per task id
system.l2cache.tags.occ_task_id_percent::1024     0.749023                       # Percentage of cache occupancy per task id
system.l2cache.tags.tag_accesses                38921                       # Number of tag accesses
system.l2cache.tags.data_accesses               38921                       # Number of data accesses
system.mem_ctrl.pwrStateResidencyTicks::UNDEFINED    132972400                       # Cumulative time (in ticks) in various power states
system.mem_ctrl.bytes_read::.cpu.inst           25472                       # Number of bytes read from this memory
system.mem_ctrl.bytes_read::.cpu.data           11392                       # Number of bytes read from this memory
system.mem_ctrl.bytes_read::.cpu.dcache.prefetcher         3584                       # Number of bytes read from this memory
system.mem_ctrl.bytes_read::.l2cache.prefetcher          384                       # Number of bytes read from this memory
system.mem_ctrl.bytes_read::total               40832                       # Number of bytes read from this memory
system.mem_ctrl.bytes_inst_read::.cpu.inst        25472                       # Number of instructions bytes read from this memory
system.mem_ctrl.bytes_inst_read::total          25472                       # Number of instructions bytes read from this memory
system.mem_ctrl.bytes_written::.writebacks         2368                       # Number of bytes written to this memory
system.mem_ctrl.bytes_written::total             2368                       # Number of bytes written to this memory
system.mem_ctrl.num_reads::.cpu.inst              398                       # Number of read requests responded to by this memory
system.mem_ctrl.num_reads::.cpu.data              178                       # Number of read requests responded to by this memory
system.mem_ctrl.num_reads::.cpu.dcache.prefetcher           56                       # Number of read requests responded to by this memory
system.mem_ctrl.num_reads::.l2cache.prefetcher            6                       # Number of read requests responded to by this memory
system.mem_ctrl.num_reads::total                  638                       # Number of read requests responded to by this memory
system.mem_ctrl.num_writes::.writebacks            37                       # Number of write requests responded to by this memory
system.mem_ctrl.num_writes::total                  37                       # Number of write requests responded to by this memory
system.mem_ctrl.bw_read::.cpu.inst          191558549                       # Total read bandwidth from this memory (bytes/s)
system.mem_ctrl.bw_read::.cpu.data           85671914                       # Total read bandwidth from this memory (bytes/s)
system.mem_ctrl.bw_read::.cpu.dcache.prefetcher     26952962                       # Total read bandwidth from this memory (bytes/s)
system.mem_ctrl.bw_read::.l2cache.prefetcher      2887817                       # Total read bandwidth from this memory (bytes/s)
system.mem_ctrl.bw_read::total              307071242                       # Total read bandwidth from this memory (bytes/s)
system.mem_ctrl.bw_inst_read::.cpu.inst     191558549                       # Instruction read bandwidth from this memory (bytes/s)
system.mem_ctrl.bw_inst_read::total         191558549                       # Instruction read bandwidth from this memory (bytes/s)
system.mem_ctrl.bw_write::.writebacks        17808207                       # Write bandwidth from this memory (bytes/s)
system.mem_ctrl.bw_write::total              17808207                       # Write bandwidth from this memory (bytes/s)
system.mem_ctrl.bw_total::.writebacks        17808207                       # Total bandwidth to/from this memory (bytes/s)
system.mem_ctrl.bw_total::.cpu.inst         191558549                       # Total bandwidth to/from this memory (bytes/s)
system.mem_ctrl.bw_total::.cpu.data          85671914                       # Total bandwidth to/from this memory (bytes/s)
system.mem_ctrl.bw_total::.cpu.dcache.prefetcher     26952962                       # Total bandwidth to/from this memory (bytes/s)
system.mem_ctrl.bw_total::.l2cache.prefetcher      2887817                       # Total bandwidth to/from this memory (bytes/s)
system.mem_ctrl.bw_total::total             324879449                       # Total bandwidth to/from this memory (bytes/s)

---------- End Simulation Statistics   ----------
