
---------- Begin Simulation Statistics ----------
final_tick                                 3697150000                       # Number of ticks from beginning of simulation (restored from checkpoints and never reset)
host_inst_rate                                 200799                       # Simulator instruction rate (inst/s)
host_mem_usage                                4407848                       # Number of bytes of host memory used
host_op_rate                                   378919                       # Simulator op (including micro ops) rate (op/s)
host_seconds                                    46.74                       # Real time elapsed on the host
host_tick_rate                               79108391                       # Simulator tick rate (ticks/s)
sim_freq                                 1000000000000                       # Frequency of simulated ticks
sim_insts                                     9384352                       # Number of instructions simulated
sim_ops                                      17708848                       # Number of ops (including micro ops) simulated
sim_seconds                                  0.003697                       # Number of seconds simulated
sim_ticks                                  3697150000                       # Number of ticks simulated
system.cpu.branchPred.BTBCorrect                    0                       # Number of correct BTB predictions (this stat may not work properly.
system.cpu.branchPred.BTBHitPct              0.000000                       # BTB Hit Percentage
system.cpu.branchPred.BTBHits                       0                       # Number of BTB hits
system.cpu.branchPred.BTBLookups              1770635                       # Number of BTB lookups
system.cpu.branchPred.RASInCorrect                  8                       # Number of incorrect RAS predictions.
system.cpu.branchPred.condIncorrect             52921                       # Number of conditional branches incorrect
system.cpu.branchPred.condPredicted           1768402                       # Number of conditional branches predicted
system.cpu.branchPred.indirectHits             954429                       # Number of indirect target hits.
system.cpu.branchPred.indirectLookups         1770635                       # Number of indirect predictor lookups.
system.cpu.branchPred.indirectMisses           816206                       # Number of indirect misses.
system.cpu.branchPred.lookups                 2020192                       # Number of BP lookups
system.cpu.branchPred.usedRAS                  127245                       # Number of times the RAS was used to get a target.
system.cpu.branchPredindirectMispredicted        37511                       # Number of mispredicted indirect branches.
system.cpu.cc_regfile_reads                  10253477                       # number of cc regfile reads
system.cpu.cc_regfile_writes                  6739543                       # number of cc regfile writes
system.cpu.commit.amos                              0                       # Number of atomic instructions committed
system.cpu.commit.branchMispredicts             53061                       # The number of times a branch was mispredicted
system.cpu.commit.branches                    1759126                       # Number of branches committed
system.cpu.commit.bw_lim_events               2760887                       # number cycles where commit BW limit reached
system.cpu.commit.commitNonSpecStalls             764                       # The number of times commit has been forced to stall to communicate backwards
system.cpu.commit.commitSquashedInsts         1491287                       # The number of squashed insts skipped by commit
system.cpu.commit.committedInsts              9384352                       # Number of instructions committed
system.cpu.commit.committedOps               17708848                       # Number of ops (including micro ops) committed
system.cpu.commit.committed_per_cycle::samples      8626770                       # Number of insts commited each cycle
system.cpu.commit.committed_per_cycle::mean     2.052779                       # Number of insts commited each cycle
system.cpu.commit.committed_per_cycle::stdev     1.629776                       # Number of insts commited each cycle
system.cpu.commit.committed_per_cycle::underflows            0      0.00%      0.00% # Number of insts commited each cycle
system.cpu.commit.committed_per_cycle::0      2318956     26.88%     26.88% # Number of insts commited each cycle
system.cpu.commit.committed_per_cycle::1      1523688     17.66%     44.54% # Number of insts commited each cycle
system.cpu.commit.committed_per_cycle::2       928105     10.76%     55.30% # Number of insts commited each cycle
system.cpu.commit.committed_per_cycle::3      1095134     12.69%     68.00% # Number of insts commited each cycle
system.cpu.commit.committed_per_cycle::4      2760887     32.00%    100.00% # Number of insts commited each cycle
system.cpu.commit.committed_per_cycle::overflows            0      0.00%    100.00% # Number of insts commited each cycle
system.cpu.commit.committed_per_cycle::min_value            0                       # Number of insts commited each cycle
system.cpu.commit.committed_per_cycle::max_value            4                       # Number of insts commited each cycle
system.cpu.commit.committed_per_cycle::total      8626770                       # Number of insts commited each cycle
system.cpu.commit.fp_insts                     573386                       # Number of committed floating point instructions.
system.cpu.commit.function_calls               119176                       # Number of function calls committed.
system.cpu.commit.int_insts                  17244355                       # Number of committed integer instructions.
system.cpu.commit.loads                       2195121                       # Number of loads committed
system.cpu.commit.membars                           1                       # Number of memory barriers committed
system.cpu.commit.op_class_0::No_OpClass        70213      0.40%      0.40% # Class of committed instruction
system.cpu.commit.op_class_0::IntAlu         13579653     76.68%     77.08% # Class of committed instruction
system.cpu.commit.op_class_0::IntMult          108350      0.61%     77.69% # Class of committed instruction
system.cpu.commit.op_class_0::IntDiv            37486      0.21%     77.90% # Class of committed instruction
system.cpu.commit.op_class_0::FloatAdd          22853      0.13%     78.03% # Class of committed instruction
system.cpu.commit.op_class_0::FloatCmp              0      0.00%     78.03% # Class of committed instruction
system.cpu.commit.op_class_0::FloatCvt           1232      0.01%     78.04% # Class of committed instruction
system.cpu.commit.op_class_0::FloatMult             0      0.00%     78.04% # Class of committed instruction
system.cpu.commit.op_class_0::FloatMultAcc            0      0.00%     78.04% # Class of committed instruction
system.cpu.commit.op_class_0::FloatDiv              0      0.00%     78.04% # Class of committed instruction
system.cpu.commit.op_class_0::FloatMisc             0      0.00%     78.04% # Class of committed instruction
system.cpu.commit.op_class_0::FloatSqrt             0      0.00%     78.04% # Class of committed instruction
system.cpu.commit.op_class_0::SimdAdd            6216      0.04%     78.07% # Class of committed instruction
system.cpu.commit.op_class_0::SimdAddAcc            0      0.00%     78.07% # Class of committed instruction
system.cpu.commit.op_class_0::SimdAlu           91182      0.51%     78.59% # Class of committed instruction
system.cpu.commit.op_class_0::SimdCmp               0      0.00%     78.59% # Class of committed instruction
system.cpu.commit.op_class_0::SimdCvt           92126      0.52%     79.11% # Class of committed instruction
system.cpu.commit.op_class_0::SimdMisc         186538      1.05%     80.16% # Class of committed instruction
system.cpu.commit.op_class_0::SimdMult              0      0.00%     80.16% # Class of committed instruction
system.cpu.commit.op_class_0::SimdMultAcc            0      0.00%     80.16% # Class of committed instruction
system.cpu.commit.op_class_0::SimdShift          1112      0.01%     80.17% # Class of committed instruction
system.cpu.commit.op_class_0::SimdShiftAcc            0      0.00%     80.17% # Class of committed instruction
system.cpu.commit.op_class_0::SimdDiv               0      0.00%     80.17% # Class of committed instruction
system.cpu.commit.op_class_0::SimdSqrt              0      0.00%     80.17% # Class of committed instruction
system.cpu.commit.op_class_0::SimdFloatAdd            0      0.00%     80.17% # Class of committed instruction
system.cpu.commit.op_class_0::SimdFloatAlu            0      0.00%     80.17% # Class of committed instruction
system.cpu.commit.op_class_0::SimdFloatCmp            0      0.00%     80.17% # Class of committed instruction
system.cpu.commit.op_class_0::SimdFloatCvt            0      0.00%     80.17% # Class of committed instruction
system.cpu.commit.op_class_0::SimdFloatDiv            0      0.00%     80.17% # Class of committed instruction
system.cpu.commit.op_class_0::SimdFloatMisc            0      0.00%     80.17% # Class of committed instruction
system.cpu.commit.op_class_0::SimdFloatMult            0      0.00%     80.17% # Class of committed instruction
system.cpu.commit.op_class_0::SimdFloatMultAcc            0      0.00%     80.17% # Class of committed instruction
system.cpu.commit.op_class_0::SimdFloatSqrt            0      0.00%     80.17% # Class of committed instruction
system.cpu.commit.op_class_0::SimdReduceAdd            0      0.00%     80.17% # Class of committed instruction
system.cpu.commit.op_class_0::SimdReduceAlu            0      0.00%     80.17% # Class of committed instruction
system.cpu.commit.op_class_0::SimdReduceCmp            0      0.00%     80.17% # Class of committed instruction
system.cpu.commit.op_class_0::SimdFloatReduceAdd            0      0.00%     80.17% # Class of committed instruction
system.cpu.commit.op_class_0::SimdFloatReduceCmp            0      0.00%     80.17% # Class of committed instruction
system.cpu.commit.op_class_0::SimdAes               0      0.00%     80.17% # Class of committed instruction
system.cpu.commit.op_class_0::SimdAesMix            0      0.00%     80.17% # Class of committed instruction
system.cpu.commit.op_class_0::SimdSha1Hash            0      0.00%     80.17% # Class of committed instruction
system.cpu.commit.op_class_0::SimdSha1Hash2            0      0.00%     80.17% # Class of committed instruction
system.cpu.commit.op_class_0::SimdSha256Hash            0      0.00%     80.17% # Class of committed instruction
system.cpu.commit.op_class_0::SimdSha256Hash2            0      0.00%     80.17% # Class of committed instruction
system.cpu.commit.op_class_0::SimdShaSigma2            0      0.00%     80.17% # Class of committed instruction
system.cpu.commit.op_class_0::SimdShaSigma3            0      0.00%     80.17% # Class of committed instruction
system.cpu.commit.op_class_0::SimdPredAlu            0      0.00%     80.17% # Class of committed instruction
system.cpu.commit.op_class_0::MemRead         2115943     11.95%     92.12% # Class of committed instruction
system.cpu.commit.op_class_0::MemWrite        1284617      7.25%     99.37% # Class of committed instruction
system.cpu.commit.op_class_0::FloatMemRead        79178      0.45%     99.82% # Class of committed instruction
system.cpu.commit.op_class_0::FloatMemWrite        32149      0.18%    100.00% # Class of committed instruction
system.cpu.commit.op_class_0::IprAccess             0      0.00%    100.00% # Class of committed instruction
system.cpu.commit.op_class_0::InstPrefetch            0      0.00%    100.00% # Class of committed instruction
system.cpu.commit.op_class_0::total          17708848                       # Class of committed instruction
system.cpu.commit.refs                        3511887                       # Number of memory references committed
system.cpu.commit.swp_count                         0                       # Number of s/w prefetches committed
system.cpu.commit.vec_insts                         0                       # Number of committed Vector instructions.
system.cpu.committedInsts                     9384352                       # Number of Instructions Simulated
system.cpu.committedOps                      17708848                       # Number of Ops (including micro ops) Simulated
system.cpu.cpi                               0.984924                       # CPI: Cycles Per Instruction
system.cpu.cpi_total                         0.984924                       # CPI: Total CPI of All Threads
system.cpu.dcache.prefetcher.num_hwpf_issued         8744                       # number of hwpf issued
system.cpu.dcache.prefetcher.pfBufferHit        33133                       # number of redundant prefetches already in prefetch queue
system.cpu.dcache.prefetcher.pfIdentified        49842                       # number of prefetch candidates identified
system.cpu.dcache.prefetcher.pfInCache              0                       # number of redundant prefetches already in cache/mshr dropped
system.cpu.dcache.prefetcher.pfRemovedFull            0                       # number of prefetches dropped due to prefetch queue size
system.cpu.dcache.prefetcher.pfSpanPage          4706                       # number of prefetches that crossed the page
system.cpu.decode.BlockedCycles               1292176                       # Number of cycles decode is blocked
system.cpu.decode.DecodedInsts               19624802                       # Number of instructions handled by decode
system.cpu.decode.IdleCycles                  2238477                       # Number of cycles decode is idle
system.cpu.decode.RunCycles                   5269555                       # Number of cycles decode is running
system.cpu.decode.SquashCycles                  53176                       # Number of cycles decode is squashing
system.cpu.decode.UnblockCycles                179681                       # Number of cycles decode is unblocking
system.cpu.dtb.rdAccesses                     2347655                       # TLB accesses on read requests
system.cpu.dtb.rdMisses                          2047                       # TLB misses on read requests
system.cpu.dtb.wrAccesses                     1346645                       # TLB accesses on write requests
system.cpu.dtb.wrMisses                           173                       # TLB misses on write requests
system.cpu.fetch.Branches                     2020192                       # Number of branches that fetch encountered
system.cpu.fetch.CacheLines                   1497131                       # Number of cache lines fetched
system.cpu.fetch.Cycles                       6763432                       # Number of cycles fetch has run and was not squashing or blocked
system.cpu.fetch.IcacheSquashes                 17150                       # Number of outstanding Icache misses that were squashed
system.cpu.fetch.IcacheWaitRetryStallCycles           14                       # Number of stall cycles due to full MSHR
system.cpu.fetch.Insts                       10645737                       # Number of instructions fetch has processed
system.cpu.fetch.MiscStallCycles                  203                       # Number of cycles fetch has spent waiting on interrupts, or bad addresses, or out of MSHRs
system.cpu.fetch.PendingQuiesceStallCycles            7                       # Number of stall cycles due to pending quiesce instructions
system.cpu.fetch.PendingTrapStallCycles           957                       # Number of stall cycles due to pending traps
system.cpu.fetch.SquashCycles                  106352                       # Number of cycles fetch has spent squashing
system.cpu.fetch.branchRate                  0.218567                       # Number of branch fetches per cycle
system.cpu.fetch.icacheStallCycles            2215276                       # Number of cycles fetch is stalled on an Icache miss
system.cpu.fetch.predictedBranches            1081674                       # Number of branches that fetch has predicted taken
system.cpu.fetch.rate                        1.151778                       # Number of inst fetches per cycle
system.cpu.fetch.rateDist::samples            9033065                       # Number of instructions fetched each cycle (Total)
system.cpu.fetch.rateDist::mean              2.212334                       # Number of instructions fetched each cycle (Total)
system.cpu.fetch.rateDist::stdev             1.879185                       # Number of instructions fetched each cycle (Total)
system.cpu.fetch.rateDist::underflows               0      0.00%      0.00% # Number of instructions fetched each cycle (Total)
system.cpu.fetch.rateDist::0                  3379662     37.41%     37.41% # Number of instructions fetched each cycle (Total)
system.cpu.fetch.rateDist::1                   595766      6.60%     44.01% # Number of instructions fetched each cycle (Total)
system.cpu.fetch.rateDist::2                   243776      2.70%     46.71% # Number of instructions fetched each cycle (Total)
system.cpu.fetch.rateDist::3                   354608      3.93%     50.63% # Number of instructions fetched each cycle (Total)
system.cpu.fetch.rateDist::4                  4459253     49.37%    100.00% # Number of instructions fetched each cycle (Total)
system.cpu.fetch.rateDist::overflows                0      0.00%    100.00% # Number of instructions fetched each cycle (Total)
system.cpu.fetch.rateDist::min_value                0                       # Number of instructions fetched each cycle (Total)
system.cpu.fetch.rateDist::max_value                4                       # Number of instructions fetched each cycle (Total)
system.cpu.fetch.rateDist::total              9033065                       # Number of instructions fetched each cycle (Total)
system.cpu.fp_regfile_reads                    959221                       # number of floating regfile reads
system.cpu.fp_regfile_writes                   505367                       # number of floating regfile writes
system.cpu.fuPool.fu_ticks_busy::IntALU(0)    952736800                       # Total ticks fu was busy
system.cpu.fuPool.fu_ticks_busy::IntALU(1)    952736800                       # Total ticks fu was busy
system.cpu.fuPool.fu_ticks_busy::IntALU(2)    952736800                       # Total ticks fu was busy
system.cpu.fuPool.fu_ticks_busy::IntALU(3)    952736800                       # Total ticks fu was busy
system.cpu.fuPool.fu_ticks_busy::IntALU(4)    952736800                       # Total ticks fu was busy
system.cpu.fuPool.fu_ticks_busy::IntALU(5)    952736800                       # Total ticks fu was busy
system.cpu.fuPool.fu_ticks_busy::IntMultDiv(0)     29980000                       # Total ticks fu was busy
system.cpu.fuPool.fu_ticks_busy::IntMultDiv(1)     29980000                       # Total ticks fu was busy
system.cpu.fuPool.fu_ticks_busy::FP_ALU(0)      2549200                       # Total ticks fu was busy
system.cpu.fuPool.fu_ticks_busy::FP_ALU(1)      2549200                       # Total ticks fu was busy
system.cpu.fuPool.fu_ticks_busy::FP_ALU(2)      2548800                       # Total ticks fu was busy
system.cpu.fuPool.fu_ticks_busy::FP_ALU(3)      2548800                       # Total ticks fu was busy
system.cpu.fuPool.fu_ticks_busy::FP_MultDiv(0)            0                       # Total ticks fu was busy
system.cpu.fuPool.fu_ticks_busy::FP_MultDiv(1)            0                       # Total ticks fu was busy
system.cpu.fuPool.fu_ticks_busy::SIMD_Unit(0)     39160400                       # Total ticks fu was busy
system.cpu.fuPool.fu_ticks_busy::SIMD_Unit(1)     39236000                       # Total ticks fu was busy
system.cpu.fuPool.fu_ticks_busy::SIMD_Unit(2)     36434400                       # Total ticks fu was busy
system.cpu.fuPool.fu_ticks_busy::SIMD_Unit(3)     39022000                       # Total ticks fu was busy
system.cpu.fuPool.fu_ticks_busy::PredALU(0)            0                       # Total ticks fu was busy
system.cpu.fuPool.fu_ticks_busy::RdWrPort(0)    372434000                       # Total ticks fu was busy
system.cpu.fuPool.fu_ticks_busy::RdWrPort(1)    372091200                       # Total ticks fu was busy
system.cpu.fuPool.fu_ticks_busy::RdWrPort(2)    372417600                       # Total ticks fu was busy
system.cpu.fuPool.fu_ticks_busy::RdWrPort(3)    372160000                       # Total ticks fu was busy
system.cpu.fuPool.fu_ticks_busy::IprPort(0)            0                       # Total ticks fu was busy
system.cpu.fuPool.fu_ticks_busy::total     7429532400                       # Total ticks fu was busy
system.cpu.icache.prefetcher.num_hwpf_issued            0                       # number of hwpf issued
system.cpu.icache.prefetcher.pfBufferHit            0                       # number of redundant prefetches already in prefetch queue
system.cpu.icache.prefetcher.pfIdentified            0                       # number of prefetch candidates identified
system.cpu.icache.prefetcher.pfInCache              0                       # number of redundant prefetches already in cache/mshr dropped
system.cpu.icache.prefetcher.pfRemovedFull            0                       # number of prefetches dropped due to prefetch queue size
system.cpu.icache.prefetcher.pfSpanPage             0                       # number of prefetches that crossed the page
system.cpu.idleCycles                          209811                       # Total number of cycles that the CPU has spent unscheduled due to idling
system.cpu.iew.branchMispredicts                65944                       # Number of branch mispredicts detected at execute
system.cpu.iew.exec_branches                  1817120                       # Number of branches executed
system.cpu.iew.exec_nop                             0                       # number of nop insts executed
system.cpu.iew.exec_rate                     2.010510                       # Inst execution rate
system.cpu.iew.exec_refs                      3693686                       # number of memory reference insts executed
system.cpu.iew.exec_stores                    1344345                       # Number of stores executed
system.cpu.iew.exec_swp                             0                       # number of swp insts executed
system.cpu.iew.iewBlockCycles                  834247                       # Number of cycles IEW is blocking
system.cpu.iew.iewDispLoadInsts               2410520                       # Number of dispatched load instructions
system.cpu.iew.iewDispNonSpecInsts                981                       # Number of dispatched non-speculative instructions
system.cpu.iew.iewDispSquashedInsts               528                       # Number of squashed instructions skipped by dispatch
system.cpu.iew.iewDispStoreInsts              1383545                       # Number of dispatched store instructions
system.cpu.iew.iewDispatchedInsts            19200064                       # Number of instructions dispatched to IQ
system.cpu.iew.iewExecLoadInsts               2349341                       # Number of load instructions executed
system.cpu.iew.iewExecSquashedInsts             72673                       # Number of squashed instructions skipped in execute
system.cpu.iew.iewExecutedInsts              18582895                       # Number of executed instructions
system.cpu.iew.iewIQFullEvents                   3410                       # Number of times the IQ has become full, causing a stall
system.cpu.iew.iewIdleCycles                        0                       # Number of cycles IEW is idle
system.cpu.iew.iewLSQFullEvents                  8745                       # Number of times the LSQ has become full, causing a stall
system.cpu.iew.iewSquashCycles                  53176                       # Number of cycles IEW is squashing
system.cpu.iew.iewUnblockCycles                 14979                       # Number of cycles IEW is unblocking
system.cpu.iew.lsq.thread0.blockedLoads             0                       # Number of blocked loads due to partial load-store forwarding
system.cpu.iew.lsq.thread0.cacheBlocked           606                       # Number of times an access to memory failed due to the cache being blocked
system.cpu.iew.lsq.thread0.forwLoads           181007                       # Number of loads that had data forwarded from stores
system.cpu.iew.lsq.thread0.ignoredResponses          261                       # Number of memory responses ignored because the instruction is squashed
system.cpu.iew.lsq.thread0.invAddrLoads             0                       # Number of loads ignored due to an invalid address
system.cpu.iew.lsq.thread0.invAddrSwpfs             0                       # Number of software prefetches ignored due to an invalid address
system.cpu.iew.lsq.thread0.memOrderViolation          127                       # Number of memory ordering violations
system.cpu.iew.lsq.thread0.rescheduledLoads          184                       # Number of loads that were rescheduled
system.cpu.iew.lsq.thread0.squashedLoads       215397                       # Number of loads squashed
system.cpu.iew.lsq.thread0.squashedStores        66778                       # Number of stores squashed
system.cpu.iew.memOrderViolationEvents            127                       # Number of memory order violations
system.cpu.iew.predictedNotTakenIncorrect        54970                       # Number of branches that were predicted not taken incorrectly
system.cpu.iew.predictedTakenIncorrect          10974                       # Number of branches that were predicted taken incorrectly
system.cpu.iew.wb_consumers                  22722107                       # num instructions consuming a value
system.cpu.iew.wb_count                      18544730                       # cumulative count of insts written-back
system.cpu.iew.wb_fanout                     0.598566                       # average fanout of values written-back
system.cpu.iew.wb_producers                  13600683                       # num instructions producing a value
system.cpu.iew.wb_rate                       2.006381                       # insts written-back per cycle
system.cpu.iew.wb_sent                       18558324                       # cumulative count of insts sent to commit
system.cpu.int_regfile_reads                 28337202                       # number of integer regfile reads
system.cpu.int_regfile_writes                15029393                       # number of integer regfile writes
system.cpu.ipc                               1.015306                       # IPC: Instructions Per Cycle
system.cpu.ipc_total                         1.015306                       # IPC: Total IPC of All Threads
system.cpu.iq.FU_type_0::No_OpClass             81737      0.44%      0.44% # Type of FU issued
system.cpu.iq.FU_type_0::IntAlu              14291053     76.60%     77.04% # Type of FU issued
system.cpu.iq.FU_type_0::IntMult               108386      0.58%     77.62% # Type of FU issued
system.cpu.iq.FU_type_0::IntDiv                 41514      0.22%     77.85% # Type of FU issued
system.cpu.iq.FU_type_0::FloatAdd               24230      0.13%     77.98% # Type of FU issued
system.cpu.iq.FU_type_0::FloatCmp                   0      0.00%     77.98% # Type of FU issued
system.cpu.iq.FU_type_0::FloatCvt                1260      0.01%     77.98% # Type of FU issued
system.cpu.iq.FU_type_0::FloatMult                  0      0.00%     77.98% # Type of FU issued
system.cpu.iq.FU_type_0::FloatMultAcc               0      0.00%     77.98% # Type of FU issued
system.cpu.iq.FU_type_0::FloatDiv                   0      0.00%     77.98% # Type of FU issued
system.cpu.iq.FU_type_0::FloatMisc                  0      0.00%     77.98% # Type of FU issued
system.cpu.iq.FU_type_0::FloatSqrt                  0      0.00%     77.98% # Type of FU issued
system.cpu.iq.FU_type_0::SimdAdd                 6849      0.04%     78.02% # Type of FU issued
system.cpu.iq.FU_type_0::SimdAddAcc                 0      0.00%     78.02% # Type of FU issued
system.cpu.iq.FU_type_0::SimdAlu                94731      0.51%     78.53% # Type of FU issued
system.cpu.iq.FU_type_0::SimdCmp                    0      0.00%     78.53% # Type of FU issued
system.cpu.iq.FU_type_0::SimdCvt                93818      0.50%     79.03% # Type of FU issued
system.cpu.iq.FU_type_0::SimdMisc              187105      1.00%     80.03% # Type of FU issued
system.cpu.iq.FU_type_0::SimdMult                   0      0.00%     80.03% # Type of FU issued
system.cpu.iq.FU_type_0::SimdMultAcc                0      0.00%     80.03% # Type of FU issued
system.cpu.iq.FU_type_0::SimdShift               2129      0.01%     80.04% # Type of FU issued
system.cpu.iq.FU_type_0::SimdShiftAcc               0      0.00%     80.04% # Type of FU issued
system.cpu.iq.FU_type_0::SimdDiv                    0      0.00%     80.04% # Type of FU issued
system.cpu.iq.FU_type_0::SimdSqrt                   0      0.00%     80.04% # Type of FU issued
system.cpu.iq.FU_type_0::SimdFloatAdd               0      0.00%     80.04% # Type of FU issued
system.cpu.iq.FU_type_0::SimdFloatAlu               0      0.00%     80.04% # Type of FU issued
system.cpu.iq.FU_type_0::SimdFloatCmp               0      0.00%     80.04% # Type of FU issued
system.cpu.iq.FU_type_0::SimdFloatCvt               0      0.00%     80.04% # Type of FU issued
system.cpu.iq.FU_type_0::SimdFloatDiv               0      0.00%     80.04% # Type of FU issued
system.cpu.iq.FU_type_0::SimdFloatMisc              0      0.00%     80.04% # Type of FU issued
system.cpu.iq.FU_type_0::SimdFloatMult              0      0.00%     80.04% # Type of FU issued
system.cpu.iq.FU_type_0::SimdFloatMultAcc            0      0.00%     80.04% # Type of FU issued
system.cpu.iq.FU_type_0::SimdFloatSqrt              0      0.00%     80.04% # Type of FU issued
system.cpu.iq.FU_type_0::SimdReduceAdd              0      0.00%     80.04% # Type of FU issued
system.cpu.iq.FU_type_0::SimdReduceAlu              0      0.00%     80.04% # Type of FU issued
system.cpu.iq.FU_type_0::SimdReduceCmp              0      0.00%     80.04% # Type of FU issued
system.cpu.iq.FU_type_0::SimdFloatReduceAdd            0      0.00%     80.04% # Type of FU issued
system.cpu.iq.FU_type_0::SimdFloatReduceCmp            0      0.00%     80.04% # Type of FU issued
system.cpu.iq.FU_type_0::SimdAes                    0      0.00%     80.04% # Type of FU issued
system.cpu.iq.FU_type_0::SimdAesMix                 0      0.00%     80.04% # Type of FU issued
system.cpu.iq.FU_type_0::SimdSha1Hash               0      0.00%     80.04% # Type of FU issued
system.cpu.iq.FU_type_0::SimdSha1Hash2              0      0.00%     80.04% # Type of FU issued
system.cpu.iq.FU_type_0::SimdSha256Hash             0      0.00%     80.04% # Type of FU issued
system.cpu.iq.FU_type_0::SimdSha256Hash2            0      0.00%     80.04% # Type of FU issued
system.cpu.iq.FU_type_0::SimdShaSigma2              0      0.00%     80.04% # Type of FU issued
system.cpu.iq.FU_type_0::SimdShaSigma3              0      0.00%     80.04% # Type of FU issued
system.cpu.iq.FU_type_0::SimdPredAlu                0      0.00%     80.04% # Type of FU issued
system.cpu.iq.FU_type_0::MemRead              2283586     12.24%     92.29% # Type of FU issued
system.cpu.iq.FU_type_0::MemWrite             1320648      7.08%     99.36% # Type of FU issued
system.cpu.iq.FU_type_0::FloatMemRead           85064      0.46%     99.82% # Type of FU issued
system.cpu.iq.FU_type_0::FloatMemWrite          33461      0.18%    100.00% # Type of FU issued
system.cpu.iq.FU_type_0::IprAccess                  0      0.00%    100.00% # Type of FU issued
system.cpu.iq.FU_type_0::InstPrefetch               0      0.00%    100.00% # Type of FU issued
system.cpu.iq.FU_type_0::total               18655571                       # Type of FU issued
system.cpu.iq.fp_alu_accesses                  589611                       # Number of floating point alu accesses
system.cpu.iq.fp_inst_queue_reads             1180425                       # Number of floating instruction queue reads
system.cpu.iq.fp_inst_queue_wakeup_accesses       586189                       # Number of floating instruction queue wakeup accesses
system.cpu.iq.fp_inst_queue_writes             628512                       # Number of floating instruction queue writes
system.cpu.iq.fu_busy_cnt                           0                       # FU busy when requested
system.cpu.iq.fu_busy_rate                          0                       # FU busy rate (busy events/executed inst)
system.cpu.iq.fu_full::No_OpClass                   0                       # attempts to use FU when none available
system.cpu.iq.fu_full::IntAlu                       0                       # attempts to use FU when none available
system.cpu.iq.fu_full::IntMult                      0                       # attempts to use FU when none available
system.cpu.iq.fu_full::IntDiv                       0                       # attempts to use FU when none available
system.cpu.iq.fu_full::FloatAdd                     0                       # attempts to use FU when none available
system.cpu.iq.fu_full::FloatCmp                     0                       # attempts to use FU when none available
system.cpu.iq.fu_full::FloatCvt                     0                       # attempts to use FU when none available
system.cpu.iq.fu_full::FloatMult                    0                       # attempts to use FU when none available
system.cpu.iq.fu_full::FloatMultAcc                 0                       # attempts to use FU when none available
system.cpu.iq.fu_full::FloatDiv                     0                       # attempts to use FU when none available
system.cpu.iq.fu_full::FloatMisc                    0                       # attempts to use FU when none available
system.cpu.iq.fu_full::FloatSqrt                    0                       # attempts to use FU when none available
system.cpu.iq.fu_full::SimdAdd                      0                       # attempts to use FU when none available
system.cpu.iq.fu_full::SimdAddAcc                   0                       # attempts to use FU when none available
system.cpu.iq.fu_full::SimdAlu                      0                       # attempts to use FU when none available
system.cpu.iq.fu_full::SimdCmp                      0                       # attempts to use FU when none available
system.cpu.iq.fu_full::SimdCvt                      0                       # attempts to use FU when none available
system.cpu.iq.fu_full::SimdMisc                     0                       # attempts to use FU when none available
system.cpu.iq.fu_full::SimdMult                     0                       # attempts to use FU when none available
system.cpu.iq.fu_full::SimdMultAcc                  0                       # attempts to use FU when none available
system.cpu.iq.fu_full::SimdShift                    0                       # attempts to use FU when none available
system.cpu.iq.fu_full::SimdShiftAcc                 0                       # attempts to use FU when none available
system.cpu.iq.fu_full::SimdDiv                      0                       # attempts to use FU when none available
system.cpu.iq.fu_full::SimdSqrt                     0                       # attempts to use FU when none available
system.cpu.iq.fu_full::SimdFloatAdd                 0                       # attempts to use FU when none available
system.cpu.iq.fu_full::SimdFloatAlu                 0                       # attempts to use FU when none available
system.cpu.iq.fu_full::SimdFloatCmp                 0                       # attempts to use FU when none available
system.cpu.iq.fu_full::SimdFloatCvt                 0                       # attempts to use FU when none available
system.cpu.iq.fu_full::SimdFloatDiv                 0                       # attempts to use FU when none available
system.cpu.iq.fu_full::SimdFloatMisc                0                       # attempts to use FU when none available
system.cpu.iq.fu_full::SimdFloatMult                0                       # attempts to use FU when none available
system.cpu.iq.fu_full::SimdFloatMultAcc             0                       # attempts to use FU when none available
system.cpu.iq.fu_full::SimdFloatSqrt                0                       # attempts to use FU when none available
system.cpu.iq.fu_full::SimdReduceAdd                0                       # attempts to use FU when none available
system.cpu.iq.fu_full::SimdReduceAlu                0                       # attempts to use FU when none available
system.cpu.iq.fu_full::SimdReduceCmp                0                       # attempts to use FU when none available
system.cpu.iq.fu_full::SimdFloatReduceAdd            0                       # attempts to use FU when none available
system.cpu.iq.fu_full::SimdFloatReduceCmp            0                       # attempts to use FU when none available
system.cpu.iq.fu_full::SimdAes                      0                       # attempts to use FU when none available
system.cpu.iq.fu_full::SimdAesMix                   0                       # attempts to use FU when none available
system.cpu.iq.fu_full::SimdSha1Hash                 0                       # attempts to use FU when none available
system.cpu.iq.fu_full::SimdSha1Hash2                0                       # attempts to use FU when none available
system.cpu.iq.fu_full::SimdSha256Hash               0                       # attempts to use FU when none available
system.cpu.iq.fu_full::SimdSha256Hash2              0                       # attempts to use FU when none available
system.cpu.iq.fu_full::SimdShaSigma2                0                       # attempts to use FU when none available
system.cpu.iq.fu_full::SimdShaSigma3                0                       # attempts to use FU when none available
system.cpu.iq.fu_full::SimdPredAlu                  0                       # attempts to use FU when none available
system.cpu.iq.fu_full::MemRead                      0                       # attempts to use FU when none available
system.cpu.iq.fu_full::MemWrite                     0                       # attempts to use FU when none available
system.cpu.iq.fu_full::FloatMemRead                 0                       # attempts to use FU when none available
system.cpu.iq.fu_full::FloatMemWrite                0                       # attempts to use FU when none available
system.cpu.iq.fu_full::IprAccess                    0                       # attempts to use FU when none available
system.cpu.iq.fu_full::InstPrefetch                 0                       # attempts to use FU when none available
system.cpu.iq.int_alu_accesses               17984223                       # Number of integer alu accesses
system.cpu.iq.int_inst_queue_reads           45191578                       # Number of integer instruction queue reads
system.cpu.iq.int_inst_queue_wakeup_accesses     17958541                       # Number of integer instruction queue wakeup accesses
system.cpu.iq.int_inst_queue_writes          20062883                       # Number of integer instruction queue writes
system.cpu.iq.iqInstsAdded                   19198850                       # Number of instructions added to the IQ (excludes non-spec)
system.cpu.iq.iqInstsIssued                  18655571                       # Number of instructions issued
system.cpu.iq.iqNonSpecInstsAdded                1214                       # Number of non-speculative instructions added to the IQ
system.cpu.iq.iqSquashedInstsExamined         1491205                       # Number of squashed instructions iterated over during squash; mainly for profiling
system.cpu.iq.iqSquashedInstsIssued             27799                       # Number of squashed instructions issued
system.cpu.iq.iqSquashedNonSpecRemoved            450                       # Number of squashed non-spec instructions that were removed
system.cpu.iq.iqSquashedOperandsExamined      2315411                       # Number of squashed operands that are examined and possibly removed from graph
system.cpu.iq.issued_per_cycle::samples       9033065                       # Number of insts issued each cycle
system.cpu.iq.issued_per_cycle::mean         2.065254                       # Number of insts issued each cycle
system.cpu.iq.issued_per_cycle::stdev        1.538738                       # Number of insts issued each cycle
system.cpu.iq.issued_per_cycle::underflows            0      0.00%      0.00% # Number of insts issued each cycle
system.cpu.iq.issued_per_cycle::0             2321436     25.70%     25.70% # Number of insts issued each cycle
system.cpu.iq.issued_per_cycle::1             1140047     12.62%     38.32% # Number of insts issued each cycle
system.cpu.iq.issued_per_cycle::2             1513234     16.75%     55.07% # Number of insts issued each cycle
system.cpu.iq.issued_per_cycle::3             1744336     19.31%     74.38% # Number of insts issued each cycle
system.cpu.iq.issued_per_cycle::4             2314012     25.62%    100.00% # Number of insts issued each cycle
system.cpu.iq.issued_per_cycle::overflows            0      0.00%    100.00% # Number of insts issued each cycle
system.cpu.iq.issued_per_cycle::min_value            0                       # Number of insts issued each cycle
system.cpu.iq.issued_per_cycle::max_value            4                       # Number of insts issued each cycle
system.cpu.iq.issued_per_cycle::total         9033065                       # Number of insts issued each cycle
system.cpu.iq.rate                           2.018373                       # Inst issue rate
system.cpu.iq.vec_alu_accesses                      0                       # Number of vector alu accesses
system.cpu.iq.vec_inst_queue_reads                  0                       # Number of vector instruction queue reads
system.cpu.iq.vec_inst_queue_wakeup_accesses            0                       # Number of vector instruction queue wakeup accesses
system.cpu.iq.vec_inst_queue_writes                 0                       # Number of vector instruction queue writes
system.cpu.itb.rdAccesses                           0                       # TLB accesses on read requests
system.cpu.itb.rdMisses                             0                       # TLB misses on read requests
system.cpu.itb.wrAccesses                     1497291                       # TLB accesses on write requests
system.cpu.itb.wrMisses                           414                       # TLB misses on write requests
system.cpu.memDep0.conflictingLoads            100706                       # Number of conflicting loads.
system.cpu.memDep0.conflictingStores            34105                       # Number of conflicting stores.
system.cpu.memDep0.insertedLoads              2410520                       # Number of loads inserted to the mem dependence unit.
system.cpu.memDep0.insertedStores             1383545                       # Number of stores inserted to the mem dependence unit.
system.cpu.misc_regfile_reads                 7468578                       # number of misc regfile reads
system.cpu.misc_regfile_writes                    693                       # number of misc regfile writes
system.cpu.numCycles                          9242876                       # number of cpu cycles simulated
system.cpu.numWorkItemsCompleted                    0                       # number of work items this cpu completed
system.cpu.numWorkItemsStarted                      0                       # number of work items this cpu started
system.cpu.process.numSyscalls                     70                       # Number of system calls
system.cpu.rename.BlockCycles                 1001723                       # Number of cycles rename is blocking
system.cpu.rename.CommittedMaps              21303854                       # Number of HB maps that are committed
system.cpu.rename.FullRegisterEvents               55                       # Number of times there has been no free registers
system.cpu.rename.IQFullEvents                 124805                       # Number of times rename has blocked due to IQ full
system.cpu.rename.IdleCycles                  2348958                       # Number of cycles rename is idle
system.cpu.rename.LQFullEvents                  15515                       # Number of times rename has blocked due to LQ full
system.cpu.rename.ROBFullEvents                  5039                       # Number of times rename has blocked due to ROB full
system.cpu.rename.RenameLookups              49984960                       # Number of register rename lookups that rename has made
system.cpu.rename.RenamedInsts               19476384                       # Number of instructions processed by rename
system.cpu.rename.RenamedOperands            23560102                       # Number of destination operands rename has renamed
system.cpu.rename.RunCycles                   5325879                       # Number of cycles rename is running
system.cpu.rename.SQFullEvents                  77261                       # Number of times rename has blocked due to SQ full
system.cpu.rename.SquashCycles                  53176                       # Number of cycles rename is squashing
system.cpu.rename.UnblockCycles                284137                       # Number of cycles rename is unblocking
system.cpu.rename.UndoneMaps                  2256225                       # Number of HB maps that are undone due to squashing
system.cpu.rename.fp_rename_lookups            992393                       # Number of floating rename lookups
system.cpu.rename.int_rename_lookups         30013005                       # Number of integer rename lookups
system.cpu.rename.serializeStallCycles          19192                       # count of cycles rename stalled for serializing inst
system.cpu.rename.serializingInsts                897                       # count of serializing insts renamed
system.cpu.rename.skidInsts                    446377                       # count of insts added to the skid buffer
system.cpu.rename.tempSerializingInsts            947                       # count of temporary serializing insts renamed
system.cpu.rob.rob_reads                     25066018                       # The number of ROB reads
system.cpu.rob.rob_writes                    38808077                       # The number of ROB writes
system.cpu.timesIdled                           23500                       # Number of times that the entire CPU went into an idle state and unscheduled itself
system.l2bus.snoop_filter.hit_multi_requests           12                       # Number of requests hitting in the snoop filter with multiple (>1) holders of the requested data.
system.l2bus.snoop_filter.hit_multi_snoops            0                       # Number of snoops hitting in the snoop filter with multiple (>1) holders of the requested data.
system.l2bus.snoop_filter.hit_single_requests        49673                       # Number of requests hitting in the snoop filter with a single holder of the requested data.
system.l2bus.snoop_filter.hit_single_snoops          480                       # Number of snoops hitting in the snoop filter with a single holder of the requested data.
system.l2bus.snoop_filter.tot_requests         100626                       # Total number of requests made to the snoop filter.
system.l2bus.snoop_filter.tot_snoops              480                       # Total number of snoops made to the snoop filter.
system.l2cache.prefetcher.num_hwpf_issued          854                       # number of hwpf issued
system.l2cache.prefetcher.pfBufferHit               0                       # number of redundant prefetches already in prefetch queue
system.l2cache.prefetcher.pfIdentified            854                       # number of prefetch candidates identified
system.l2cache.prefetcher.pfInCache                 0                       # number of redundant prefetches already in cache/mshr dropped
system.l2cache.prefetcher.pfRemovedFull             0                       # number of prefetches dropped due to prefetch queue size
system.l2cache.prefetcher.pfSpanPage              150                       # number of prefetches that crossed the page
system.membus.snoop_filter.hit_multi_requests            0                       # Number of requests hitting in the snoop filter with multiple (>1) holders of the requested data.
system.membus.snoop_filter.hit_multi_snoops            0                       # Number of snoops hitting in the snoop filter with multiple (>1) holders of the requested data.
system.membus.snoop_filter.hit_single_requests        10181                       # Number of requests hitting in the snoop filter with a single holder of the requested data.
system.membus.snoop_filter.hit_single_snoops            0                       # Number of snoops hitting in the snoop filter with a single holder of the requested data.
system.membus.snoop_filter.tot_requests         24484                       # Total number of requests made to the snoop filter.
system.membus.snoop_filter.tot_snoops               0                       # Total number of snoops made to the snoop filter.
system.membus.pwrStateResidencyTicks::UNDEFINED   3697150000                       # Cumulative time (in ticks) in various power states
system.membus.trans_dist::ReadResp              12594                       # Transaction distribution
system.membus.trans_dist::WritebackDirty         1395                       # Transaction distribution
system.membus.trans_dist::CleanEvict             8786                       # Transaction distribution
system.membus.trans_dist::ReadExReq              1709                       # Transaction distribution
system.membus.trans_dist::ReadExResp             1709                       # Transaction distribution
system.membus.trans_dist::ReadSharedReq         12594                       # Transaction distribution
system.membus.pkt_count_system.l2cache.mem_side::system.mem_ctrl.port        38787                       # Packet count per connected master and slave (bytes)
system.membus.pkt_count_system.l2cache.mem_side::total        38787                       # Packet count per connected master and slave (bytes)
system.membus.pkt_count::total                  38787                       # Packet count per connected master and slave (bytes)
system.membus.pkt_size_system.l2cache.mem_side::system.mem_ctrl.port      1004672                       # Cumulative packet size per connected master and slave (bytes)
system.membus.pkt_size_system.l2cache.mem_side::total      1004672                       # Cumulative packet size per connected master and slave (bytes)
system.membus.pkt_size::total                 1004672                       # Cumulative packet size per connected master and slave (bytes)
system.membus.snoops                                0                       # Total snoops (count)
system.membus.snoopTraffic                          0                       # Total snoop traffic (bytes)
system.membus.snoop_fanout::samples             14303                       # Request fanout histogram
system.membus.snoop_fanout::mean                    0                       # Request fanout histogram
system.membus.snoop_fanout::stdev                   0                       # Request fanout histogram
system.membus.snoop_fanout::underflows              0      0.00%      0.00% # Request fanout histogram
system.membus.snoop_fanout::0                   14303    100.00%    100.00% # Request fanout histogram
system.membus.snoop_fanout::1                       0      0.00%    100.00% # Request fanout histogram
system.membus.snoop_fanout::overflows               0      0.00%    100.00% # Request fanout histogram
system.membus.snoop_fanout::min_value               0                       # Request fanout histogram
system.membus.snoop_fanout::max_value               0                       # Request fanout histogram
system.membus.snoop_fanout::total               14303                       # Request fanout histogram
system.membus.reqLayer2.occupancy            12064594                       # Layer occupancy (ticks)
system.membus.reqLayer2.utilization               0.3                       # Layer utilization (%)
system.membus.respLayer0.occupancy           31056006                       # Layer occupancy (ticks)
system.membus.respLayer0.utilization              0.8                       # Layer utilization (%)
system.l2bus.pwrStateResidencyTicks::UNDEFINED   3697150000                       # Cumulative time (in ticks) in various power states
system.l2bus.trans_dist::ReadResp               48512                       # Transaction distribution
system.l2bus.trans_dist::WritebackDirty          4613                       # Transaction distribution
system.l2bus.trans_dist::CleanEvict             55349                       # Transaction distribution
system.l2bus.trans_dist::HardPFReq               1169                       # Transaction distribution
system.l2bus.trans_dist::ReadExReq               2441                       # Transaction distribution
system.l2bus.trans_dist::ReadExResp              2441                       # Transaction distribution
system.l2bus.trans_dist::ReadSharedReq          48512                       # Transaction distribution
system.l2bus.pkt_count_system.cpu.icache.mem_side::system.l2cache.cpu_side        98898                       # Packet count per connected master and slave (bytes)
system.l2bus.pkt_count_system.cpu.dcache.mem_side::system.l2cache.cpu_side        52676                       # Packet count per connected master and slave (bytes)
system.l2bus.pkt_count::total                  151574                       # Packet count per connected master and slave (bytes)
system.l2bus.pkt_size_system.cpu.icache.mem_side::system.l2cache.cpu_side      2115392                       # Cumulative packet size per connected master and slave (bytes)
system.l2bus.pkt_size_system.cpu.dcache.mem_side::system.l2cache.cpu_side      1351232                       # Cumulative packet size per connected master and slave (bytes)
system.l2bus.pkt_size::total                  3466624                       # Cumulative packet size per connected master and slave (bytes)
system.l2bus.snoops                             11463                       # Total snoops (count)
system.l2bus.snoopTraffic                       89600                       # Total snoop traffic (bytes)
system.l2bus.snoop_fanout::samples              62411                       # Request fanout histogram
system.l2bus.snoop_fanout::mean              0.007883                       # Request fanout histogram
system.l2bus.snoop_fanout::stdev             0.088438                       # Request fanout histogram
system.l2bus.snoop_fanout::underflows               0      0.00%      0.00% # Request fanout histogram
system.l2bus.snoop_fanout::0                    61919     99.21%     99.21% # Request fanout histogram
system.l2bus.snoop_fanout::1                      492      0.79%    100.00% # Request fanout histogram
system.l2bus.snoop_fanout::2                        0      0.00%    100.00% # Request fanout histogram
system.l2bus.snoop_fanout::overflows                0      0.00%    100.00% # Request fanout histogram
system.l2bus.snoop_fanout::min_value                0                       # Request fanout histogram
system.l2bus.snoop_fanout::max_value                1                       # Request fanout histogram
system.l2bus.snoop_fanout::total                62411                       # Request fanout histogram
system.l2bus.respLayer1.occupancy            21487185                       # Layer occupancy (ticks)
system.l2bus.respLayer1.utilization               0.6                       # Layer utilization (%)
system.l2bus.reqLayer0.occupancy             44357207                       # Layer occupancy (ticks)
system.l2bus.reqLayer0.utilization                1.2                       # Layer utilization (%)
system.l2bus.respLayer0.occupancy            39663198                       # Layer occupancy (ticks)
system.l2bus.respLayer0.utilization               1.1                       # Layer utilization (%)
system.clk_domain.clock                           400                       # Clock period in ticks
system.clk_domain.voltage_domain.voltage            1                       # Voltage in Volts
system.cpu.pwrStateResidencyTicks::ON      3697150000                       # Cumulative time (in ticks) in various power states
system.cpu.icache.pwrStateResidencyTicks::UNDEFINED   3697150000                       # Cumulative time (in ticks) in various power states
system.cpu.icache.demand_hits::.cpu.inst      1463152                       # number of demand (read+write) hits
system.cpu.icache.demand_hits::total          1463152                       # number of demand (read+write) hits
system.cpu.icache.overall_hits::.cpu.inst      1463152                       # number of overall hits
system.cpu.icache.overall_hits::total         1463152                       # number of overall hits
system.cpu.icache.demand_misses::.cpu.inst        33977                       # number of demand (read+write) misses
system.cpu.icache.demand_misses::total          33977                       # number of demand (read+write) misses
system.cpu.icache.overall_misses::.cpu.inst        33977                       # number of overall misses
system.cpu.icache.overall_misses::total         33977                       # number of overall misses
system.cpu.icache.demand_miss_latency::.cpu.inst    493128799                       # number of demand (read+write) miss cycles
system.cpu.icache.demand_miss_latency::total    493128799                       # number of demand (read+write) miss cycles
system.cpu.icache.overall_miss_latency::.cpu.inst    493128799                       # number of overall miss cycles
system.cpu.icache.overall_miss_latency::total    493128799                       # number of overall miss cycles
system.cpu.icache.demand_accesses::.cpu.inst      1497129                       # number of demand (read+write) accesses
system.cpu.icache.demand_accesses::total      1497129                       # number of demand (read+write) accesses
system.cpu.icache.overall_accesses::.cpu.inst      1497129                       # number of overall (read+write) accesses
system.cpu.icache.overall_accesses::total      1497129                       # number of overall (read+write) accesses
system.cpu.icache.demand_miss_rate::.cpu.inst     0.022695                       # miss rate for demand accesses
system.cpu.icache.demand_miss_rate::total     0.022695                       # miss rate for demand accesses
system.cpu.icache.overall_miss_rate::.cpu.inst     0.022695                       # miss rate for overall accesses
system.cpu.icache.overall_miss_rate::total     0.022695                       # miss rate for overall accesses
system.cpu.icache.demand_avg_miss_latency::.cpu.inst 14513.606234                       # average overall miss latency
system.cpu.icache.demand_avg_miss_latency::total 14513.606234                       # average overall miss latency
system.cpu.icache.overall_avg_miss_latency::.cpu.inst 14513.606234                       # average overall miss latency
system.cpu.icache.overall_avg_miss_latency::total 14513.606234                       # average overall miss latency
system.cpu.icache.blocked_cycles::no_mshrs          173                       # number of cycles access was blocked
system.cpu.icache.blocked_cycles::no_targets            0                       # number of cycles access was blocked
system.cpu.icache.blocked::no_mshrs                 5                       # number of cycles access was blocked
system.cpu.icache.blocked::no_targets               0                       # number of cycles access was blocked
system.cpu.icache.avg_blocked_cycles::no_mshrs    34.600000                       # average number of cycles each access was blocked
system.cpu.icache.avg_blocked_cycles::no_targets          nan                       # average number of cycles each access was blocked
system.cpu.icache.writebacks::.writebacks            3                       # number of writebacks
system.cpu.icache.writebacks::total                 3                       # number of writebacks
system.cpu.icache.demand_mshr_hits::.cpu.inst          925                       # number of demand (read+write) MSHR hits
system.cpu.icache.demand_mshr_hits::total          925                       # number of demand (read+write) MSHR hits
system.cpu.icache.overall_mshr_hits::.cpu.inst          925                       # number of overall MSHR hits
system.cpu.icache.overall_mshr_hits::total          925                       # number of overall MSHR hits
system.cpu.icache.demand_mshr_misses::.cpu.inst        33052                       # number of demand (read+write) MSHR misses
system.cpu.icache.demand_mshr_misses::total        33052                       # number of demand (read+write) MSHR misses
system.cpu.icache.overall_mshr_misses::.cpu.inst        33052                       # number of overall MSHR misses
system.cpu.icache.overall_mshr_misses::total        33052                       # number of overall MSHR misses
system.cpu.icache.demand_mshr_miss_latency::.cpu.inst    434179999                       # number of demand (read+write) MSHR miss cycles
system.cpu.icache.demand_mshr_miss_latency::total    434179999                       # number of demand (read+write) MSHR miss cycles
system.cpu.icache.overall_mshr_miss_latency::.cpu.inst    434179999                       # number of overall MSHR miss cycles
system.cpu.icache.overall_mshr_miss_latency::total    434179999                       # number of overall MSHR miss cycles
system.cpu.icache.demand_mshr_miss_rate::.cpu.inst     0.022077                       # mshr miss rate for demand accesses
system.cpu.icache.demand_mshr_miss_rate::total     0.022077                       # mshr miss rate for demand accesses
system.cpu.icache.overall_mshr_miss_rate::.cpu.inst     0.022077                       # mshr miss rate for overall accesses
system.cpu.icache.overall_mshr_miss_rate::total     0.022077                       # mshr miss rate for overall accesses
system.cpu.icache.demand_avg_mshr_miss_latency::.cpu.inst 13136.270090                       # average overall mshr miss latency
system.cpu.icache.demand_avg_mshr_miss_latency::total 13136.270090                       # average overall mshr miss latency
system.cpu.icache.overall_avg_mshr_miss_latency::.cpu.inst 13136.270090                       # average overall mshr miss latency
system.cpu.icache.overall_avg_mshr_miss_latency::total 13136.270090                       # average overall mshr miss latency
system.cpu.icache.replacements                  32796                       # number of replacements
system.cpu.icache.ReadReq_hits::.cpu.inst      1463152                       # number of ReadReq hits
system.cpu.icache.ReadReq_hits::total         1463152                       # number of ReadReq hits
system.cpu.icache.ReadReq_misses::.cpu.inst        33977                       # number of ReadReq misses
system.cpu.icache.ReadReq_misses::total         33977                       # number of ReadReq misses
system.cpu.icache.ReadReq_miss_latency::.cpu.inst    493128799                       # number of ReadReq miss cycles
system.cpu.icache.ReadReq_miss_latency::total    493128799                       # number of ReadReq miss cycles
system.cpu.icache.ReadReq_accesses::.cpu.inst      1497129                       # number of ReadReq accesses(hits+misses)
system.cpu.icache.ReadReq_accesses::total      1497129                       # number of ReadReq accesses(hits+misses)
system.cpu.icache.ReadReq_miss_rate::.cpu.inst     0.022695                       # miss rate for ReadReq accesses
system.cpu.icache.ReadReq_miss_rate::total     0.022695                       # miss rate for ReadReq accesses
system.cpu.icache.ReadReq_avg_miss_latency::.cpu.inst 14513.606234                       # average ReadReq miss latency
system.cpu.icache.ReadReq_avg_miss_latency::total 14513.606234                       # average ReadReq miss latency
system.cpu.icache.ReadReq_mshr_hits::.cpu.inst          925                       # number of ReadReq MSHR hits
system.cpu.icache.ReadReq_mshr_hits::total          925                       # number of ReadReq MSHR hits
system.cpu.icache.ReadReq_mshr_misses::.cpu.inst        33052                       # number of ReadReq MSHR misses
system.cpu.icache.ReadReq_mshr_misses::total        33052                       # number of ReadReq MSHR misses
system.cpu.icache.ReadReq_mshr_miss_latency::.cpu.inst    434179999                       # number of ReadReq MSHR miss cycles
system.cpu.icache.ReadReq_mshr_miss_latency::total    434179999                       # number of ReadReq MSHR miss cycles
system.cpu.icache.ReadReq_mshr_miss_rate::.cpu.inst     0.022077                       # mshr miss rate for ReadReq accesses
system.cpu.icache.ReadReq_mshr_miss_rate::total     0.022077                       # mshr miss rate for ReadReq accesses
system.cpu.icache.ReadReq_avg_mshr_miss_latency::.cpu.inst 13136.270090                       # average ReadReq mshr miss latency
system.cpu.icache.ReadReq_avg_mshr_miss_latency::total 13136.270090                       # average ReadReq mshr miss latency
system.cpu.icache.prefetcher.pwrStateResidencyTicks::UNDEFINED   3697150000                       # Cumulative time (in ticks) in various power states
system.cpu.icache.tags.pwrStateResidencyTicks::UNDEFINED   3697150000                       # Cumulative time (in ticks) in various power states
system.cpu.icache.tags.tagsinuse           255.248222                       # Cycle average of tags in use
system.cpu.icache.tags.total_refs              840169                       # Total number of references to valid blocks.
system.cpu.icache.tags.sampled_refs             32796                       # Sample count of references to valid blocks.
system.cpu.icache.tags.avg_refs             25.618033                       # Average number of references to valid blocks.
system.cpu.icache.tags.warmup_cycle             66400                       # Cycle when the warmup percentage was hit.
system.cpu.icache.tags.occ_blocks::.cpu.inst   255.248222                       # Average occupied blocks per requestor
system.cpu.icache.tags.occ_percent::.cpu.inst     0.997063                       # Average percentage of cache occupancy
system.cpu.icache.tags.occ_percent::total     0.997063                       # Average percentage of cache occupancy
system.cpu.icache.tags.occ_task_id_blocks::1024          256                       # Occupied blocks per task id
system.cpu.icache.tags.age_task_id_blocks_1024::0           93                       # Occupied blocks per task id
system.cpu.icache.tags.age_task_id_blocks_1024::3          163                       # Occupied blocks per task id
system.cpu.icache.tags.occ_task_id_percent::1024            1                       # Percentage of cache occupancy per task id
system.cpu.icache.tags.tag_accesses           3027310                       # Number of tag accesses
system.cpu.icache.tags.data_accesses          3027310                       # Number of data accesses
system.cpu.dtb.walker.pwrStateResidencyTicks::UNDEFINED   3697150000                       # Cumulative time (in ticks) in various power states
system.cpu.interrupts.clk_domain.clock           6400                       # Clock period in ticks
system.cpu.itb.walker.pwrStateResidencyTicks::UNDEFINED   3697150000                       # Cumulative time (in ticks) in various power states
system.cpu.dcache.pwrStateResidencyTicks::UNDEFINED   3697150000                       # Cumulative time (in ticks) in various power states
system.cpu.dcache.demand_hits::.cpu.data      3448321                       # number of demand (read+write) hits
system.cpu.dcache.demand_hits::total          3448321                       # number of demand (read+write) hits
system.cpu.dcache.overall_hits::.cpu.data      3448321                       # number of overall hits
system.cpu.dcache.overall_hits::total         3448321                       # number of overall hits
system.cpu.dcache.demand_misses::.cpu.data        36061                       # number of demand (read+write) misses
system.cpu.dcache.demand_misses::total          36061                       # number of demand (read+write) misses
system.cpu.dcache.overall_misses::.cpu.data        36061                       # number of overall misses
system.cpu.dcache.overall_misses::total         36061                       # number of overall misses
system.cpu.dcache.demand_miss_latency::.cpu.data   1744928000                       # number of demand (read+write) miss cycles
system.cpu.dcache.demand_miss_latency::total   1744928000                       # number of demand (read+write) miss cycles
system.cpu.dcache.overall_miss_latency::.cpu.data   1744928000                       # number of overall miss cycles
system.cpu.dcache.overall_miss_latency::total   1744928000                       # number of overall miss cycles
system.cpu.dcache.demand_accesses::.cpu.data      3484382                       # number of demand (read+write) accesses
system.cpu.dcache.demand_accesses::total      3484382                       # number of demand (read+write) accesses
system.cpu.dcache.overall_accesses::.cpu.data      3484382                       # number of overall (read+write) accesses
system.cpu.dcache.overall_accesses::total      3484382                       # number of overall (read+write) accesses
system.cpu.dcache.demand_miss_rate::.cpu.data     0.010349                       # miss rate for demand accesses
system.cpu.dcache.demand_miss_rate::total     0.010349                       # miss rate for demand accesses
system.cpu.dcache.overall_miss_rate::.cpu.data     0.010349                       # miss rate for overall accesses
system.cpu.dcache.overall_miss_rate::total     0.010349                       # miss rate for overall accesses
system.cpu.dcache.demand_avg_miss_latency::.cpu.data 48388.231053                       # average overall miss latency
system.cpu.dcache.demand_avg_miss_latency::total 48388.231053                       # average overall miss latency
system.cpu.dcache.overall_avg_miss_latency::.cpu.data 48388.231053                       # average overall miss latency
system.cpu.dcache.overall_avg_miss_latency::total 48388.231053                       # average overall miss latency
system.cpu.dcache.blocked_cycles::no_mshrs        29115                       # number of cycles access was blocked
system.cpu.dcache.blocked_cycles::no_targets          156                       # number of cycles access was blocked
system.cpu.dcache.blocked::no_mshrs               735                       # number of cycles access was blocked
system.cpu.dcache.blocked::no_targets               2                       # number of cycles access was blocked
system.cpu.dcache.avg_blocked_cycles::no_mshrs    39.612245                       # average number of cycles each access was blocked
system.cpu.dcache.avg_blocked_cycles::no_targets           78                       # average number of cycles each access was blocked
system.cpu.dcache.unused_prefetches              1883                       # number of HardPF blocks evicted w/o reference
system.cpu.dcache.writebacks::.writebacks         3215                       # number of writebacks
system.cpu.dcache.writebacks::total              3215                       # number of writebacks
system.cpu.dcache.demand_mshr_hits::.cpu.data        22899                       # number of demand (read+write) MSHR hits
system.cpu.dcache.demand_mshr_hits::total        22899                       # number of demand (read+write) MSHR hits
system.cpu.dcache.overall_mshr_hits::.cpu.data        22899                       # number of overall MSHR hits
system.cpu.dcache.overall_mshr_hits::total        22899                       # number of overall MSHR hits
system.cpu.dcache.demand_mshr_misses::.cpu.data        13162                       # number of demand (read+write) MSHR misses
system.cpu.dcache.demand_mshr_misses::total        13162                       # number of demand (read+write) MSHR misses
system.cpu.dcache.overall_mshr_misses::.cpu.data        13162                       # number of overall MSHR misses
system.cpu.dcache.overall_mshr_misses::.cpu.dcache.prefetcher         4739                       # number of overall MSHR misses
system.cpu.dcache.overall_mshr_misses::total        17901                       # number of overall MSHR misses
system.cpu.dcache.demand_mshr_miss_latency::.cpu.data    611642800                       # number of demand (read+write) MSHR miss cycles
system.cpu.dcache.demand_mshr_miss_latency::total    611642800                       # number of demand (read+write) MSHR miss cycles
system.cpu.dcache.overall_mshr_miss_latency::.cpu.data    611642800                       # number of overall MSHR miss cycles
system.cpu.dcache.overall_mshr_miss_latency::.cpu.dcache.prefetcher    263455056                       # number of overall MSHR miss cycles
system.cpu.dcache.overall_mshr_miss_latency::total    875097856                       # number of overall MSHR miss cycles
system.cpu.dcache.demand_mshr_miss_rate::.cpu.data     0.003777                       # mshr miss rate for demand accesses
system.cpu.dcache.demand_mshr_miss_rate::total     0.003777                       # mshr miss rate for demand accesses
system.cpu.dcache.overall_mshr_miss_rate::.cpu.data     0.003777                       # mshr miss rate for overall accesses
system.cpu.dcache.overall_mshr_miss_rate::.cpu.dcache.prefetcher          inf                       # mshr miss rate for overall accesses
system.cpu.dcache.overall_mshr_miss_rate::total     0.005137                       # mshr miss rate for overall accesses
system.cpu.dcache.demand_avg_mshr_miss_latency::.cpu.data 46470.354050                       # average overall mshr miss latency
system.cpu.dcache.demand_avg_mshr_miss_latency::total 46470.354050                       # average overall mshr miss latency
system.cpu.dcache.overall_avg_mshr_miss_latency::.cpu.data 46470.354050                       # average overall mshr miss latency
system.cpu.dcache.overall_avg_mshr_miss_latency::.cpu.dcache.prefetcher 55592.963916                       # average overall mshr miss latency
system.cpu.dcache.overall_avg_mshr_miss_latency::total 48885.417351                       # average overall mshr miss latency
system.cpu.dcache.replacements                  16877                       # number of replacements
system.cpu.dcache.ReadReq_hits::.cpu.data      2131750                       # number of ReadReq hits
system.cpu.dcache.ReadReq_hits::total         2131750                       # number of ReadReq hits
system.cpu.dcache.ReadReq_misses::.cpu.data        33571                       # number of ReadReq misses
system.cpu.dcache.ReadReq_misses::total         33571                       # number of ReadReq misses
system.cpu.dcache.ReadReq_miss_latency::.cpu.data   1613678800                       # number of ReadReq miss cycles
system.cpu.dcache.ReadReq_miss_latency::total   1613678800                       # number of ReadReq miss cycles
system.cpu.dcache.ReadReq_accesses::.cpu.data      2165321                       # number of ReadReq accesses(hits+misses)
system.cpu.dcache.ReadReq_accesses::total      2165321                       # number of ReadReq accesses(hits+misses)
system.cpu.dcache.ReadReq_miss_rate::.cpu.data     0.015504                       # miss rate for ReadReq accesses
system.cpu.dcache.ReadReq_miss_rate::total     0.015504                       # miss rate for ReadReq accesses
system.cpu.dcache.ReadReq_avg_miss_latency::.cpu.data 48067.641715                       # average ReadReq miss latency
system.cpu.dcache.ReadReq_avg_miss_latency::total 48067.641715                       # average ReadReq miss latency
system.cpu.dcache.ReadReq_mshr_hits::.cpu.data        22849                       # number of ReadReq MSHR hits
system.cpu.dcache.ReadReq_mshr_hits::total        22849                       # number of ReadReq MSHR hits
system.cpu.dcache.ReadReq_mshr_misses::.cpu.data        10722                       # number of ReadReq MSHR misses
system.cpu.dcache.ReadReq_mshr_misses::total        10722                       # number of ReadReq MSHR misses
system.cpu.dcache.ReadReq_mshr_miss_latency::.cpu.data    484272400                       # number of ReadReq MSHR miss cycles
system.cpu.dcache.ReadReq_mshr_miss_latency::total    484272400                       # number of ReadReq MSHR miss cycles
system.cpu.dcache.ReadReq_mshr_miss_rate::.cpu.data     0.004952                       # mshr miss rate for ReadReq accesses
system.cpu.dcache.ReadReq_mshr_miss_rate::total     0.004952                       # mshr miss rate for ReadReq accesses
system.cpu.dcache.ReadReq_avg_mshr_miss_latency::.cpu.data 45166.237642                       # average ReadReq mshr miss latency
system.cpu.dcache.ReadReq_avg_mshr_miss_latency::total 45166.237642                       # average ReadReq mshr miss latency
system.cpu.dcache.WriteReq_hits::.cpu.data      1316571                       # number of WriteReq hits
system.cpu.dcache.WriteReq_hits::total        1316571                       # number of WriteReq hits
system.cpu.dcache.WriteReq_misses::.cpu.data         2490                       # number of WriteReq misses
system.cpu.dcache.WriteReq_misses::total         2490                       # number of WriteReq misses
system.cpu.dcache.WriteReq_miss_latency::.cpu.data    131249200                       # number of WriteReq miss cycles
system.cpu.dcache.WriteReq_miss_latency::total    131249200                       # number of WriteReq miss cycles
system.cpu.dcache.WriteReq_accesses::.cpu.data      1319061                       # number of WriteReq accesses(hits+misses)
system.cpu.dcache.WriteReq_accesses::total      1319061                       # number of WriteReq accesses(hits+misses)
system.cpu.dcache.WriteReq_miss_rate::.cpu.data     0.001888                       # miss rate for WriteReq accesses
system.cpu.dcache.WriteReq_miss_rate::total     0.001888                       # miss rate for WriteReq accesses
system.cpu.dcache.WriteReq_avg_miss_latency::.cpu.data 52710.522088                       # average WriteReq miss latency
system.cpu.dcache.WriteReq_avg_miss_latency::total 52710.522088                       # average WriteReq miss latency
system.cpu.dcache.WriteReq_mshr_hits::.cpu.data           50                       # number of WriteReq MSHR hits
system.cpu.dcache.WriteReq_mshr_hits::total           50                       # number of WriteReq MSHR hits
system.cpu.dcache.WriteReq_mshr_misses::.cpu.data         2440                       # number of WriteReq MSHR misses
system.cpu.dcache.WriteReq_mshr_misses::total         2440                       # number of WriteReq MSHR misses
[...]
system.l2cache.writebacks::total                   29                       # number of writebacks
system.l2cache.demand_mshr_misses::.cpu.inst          255                       # number of demand (read+write) MSHR misses
system.l2cache.demand_mshr_misses::.cpu.data          161                       # number of demand (read+write) MSHR misses
system.l2cache.demand_mshr_misses::.cpu.dcache.prefetcher           67                       # number of demand (read+write) MSHR misses
system.l2cache.demand_mshr_misses::total          483                       # number of demand (read+write) MSHR misses
system.l2cache.overall_mshr_misses::.cpu.inst          255                       # number of overall MSHR misses
system.l2cache.overall_mshr_misses::.cpu.data          161                       # number of overall MSHR misses
system.l2cache.overall_mshr_misses::.cpu.dcache.prefetcher           67                       # number of overall MSHR misses
system.l2cache.overall_mshr_misses::total          483                       # number of overall MSHR misses
system.l2cache.demand_mshr_miss_latency::.cpu.inst     14894000                       # number of demand (read+write) MSHR miss cycles
system.l2cache.demand_mshr_miss_latency::.cpu.data      9497200                       # number of demand (read+write) MSHR miss cycles
system.l2cache.demand_mshr_miss_latency::.cpu.dcache.prefetcher      4509938                       # number of demand (read+write) MSHR miss cycles
system.l2cache.demand_mshr_miss_latency::total     28901138                       # number of demand (read+write) MSHR miss cycles
system.l2cache.overall_mshr_miss_latency::.cpu.inst     14894000                       # number of overall MSHR miss cycles
system.l2cache.overall_mshr_miss_latency::.cpu.data      9497200                       # number of overall MSHR miss cycles
system.l2cache.overall_mshr_miss_latency::.cpu.dcache.prefetcher      4509938                       # number of overall MSHR miss cycles
system.l2cache.overall_mshr_miss_latency::total     28901138                       # number of overall MSHR miss cycles
system.l2cache.demand_mshr_miss_rate::.cpu.inst     0.573034                       # mshr miss rate for demand accesses
system.l2cache.demand_mshr_miss_rate::.cpu.data     0.456091                       # mshr miss rate for demand accesses
system.l2cache.demand_mshr_miss_rate::.cpu.dcache.prefetcher     0.870130                       # mshr miss rate for demand accesses
system.l2cache.demand_mshr_miss_rate::total     0.552000                       # mshr miss rate for demand accesses
system.l2cache.overall_mshr_miss_rate::.cpu.inst     0.573034                       # mshr miss rate for overall accesses
system.l2cache.overall_mshr_miss_rate::.cpu.data     0.456091                       # mshr miss rate for overall accesses
system.l2cache.overall_mshr_miss_rate::.cpu.dcache.prefetcher     0.870130                       # mshr miss rate for overall accesses
system.l2cache.overall_mshr_miss_rate::total     0.552000                       # mshr miss rate for overall accesses
system.l2cache.demand_avg_mshr_miss_latency::.cpu.inst 58407.843137                       # average overall mshr miss latency
system.l2cache.demand_avg_mshr_miss_latency::.cpu.data 58988.819876                       # average overall mshr miss latency
system.l2cache.demand_avg_mshr_miss_latency::.cpu.dcache.prefetcher 67312.507463                       # average overall mshr miss latency
system.l2cache.demand_avg_mshr_miss_latency::total 59836.724638                       # average overall mshr miss latency
system.l2cache.overall_avg_mshr_miss_latency::.cpu.inst 58407.843137                       # average overall mshr miss latency
system.l2cache.overall_avg_mshr_miss_latency::.cpu.data 58988.819876                       # average overall mshr miss latency
system.l2cache.overall_avg_mshr_miss_latency::.cpu.dcache.prefetcher 67312.507463                       # average overall mshr miss latency
system.l2cache.overall_avg_mshr_miss_latency::total 59836.724638                       # average overall mshr miss latency
system.l2cache.replacements                       489                       # number of replacements
system.l2cache.WritebackDirty_hits::.writebacks          307                       # number of WritebackDirty hits
system.l2cache.WritebackDirty_hits::total          307                       # number of WritebackDirty hits
system.l2cache.WritebackDirty_accesses::.writebacks          307                       # number of WritebackDirty accesses(hits+misses)
system.l2cache.WritebackDirty_accesses::total          307                       # number of WritebackDirty accesses(hits+misses)
system.l2cache.CleanEvict_mshr_misses::.writebacks           13                       # number of CleanEvict MSHR misses
system.l2cache.CleanEvict_mshr_misses::total           13                       # number of CleanEvict MSHR misses
system.l2cache.CleanEvict_mshr_miss_rate::.writebacks          inf                       # mshr miss rate for CleanEvict accesses
system.l2cache.CleanEvict_mshr_miss_rate::total          inf                       # mshr miss rate for CleanEvict accesses
system.l2cache.ReadExReq_hits::.cpu.data            9                       # number of ReadExReq hits
system.l2cache.ReadExReq_hits::total                9                       # number of ReadExReq hits
system.l2cache.ReadExReq_misses::.cpu.data            5                       # number of ReadExReq misses
system.l2cache.ReadExReq_misses::total              5                       # number of ReadExReq misses
system.l2cache.ReadExReq_miss_latency::.cpu.data       357200                       # number of ReadExReq miss cycles
system.l2cache.ReadExReq_miss_latency::total       357200                       # number of ReadExReq miss cycles
system.l2cache.ReadExReq_accesses::.cpu.data           14                       # number of ReadExReq accesses(hits+misses)
system.l2cache.ReadExReq_accesses::total           14                       # number of ReadExReq accesses(hits+misses)
system.l2cache.ReadExReq_miss_rate::.cpu.data     0.357143                       # miss rate for ReadExReq accesses
system.l2cache.ReadExReq_miss_rate::total     0.357143                       # miss rate for ReadExReq accesses
system.l2cache.ReadExReq_avg_miss_latency::.cpu.data        71440                       # average ReadExReq miss latency
system.l2cache.ReadExReq_avg_miss_latency::total        71440                       # average ReadExReq miss latency
system.l2cache.ReadExReq_mshr_misses::.cpu.data            5                       # number of ReadExReq MSHR misses
system.l2cache.ReadExReq_mshr_misses::total            5                       # number of ReadExReq MSHR misses
system.l2cache.ReadExReq_mshr_miss_latency::.cpu.data       317200                       # number of ReadExReq MSHR miss cycles
system.l2cache.ReadExReq_mshr_miss_latency::total       317200                       # number of ReadExReq MSHR miss cycles
system.l2cache.ReadExReq_mshr_miss_rate::.cpu.data     0.357143                       # mshr miss rate for ReadExReq accesses
system.l2cache.ReadExReq_mshr_miss_rate::total     0.357143                       # mshr miss rate for ReadExReq accesses
system.l2cache.ReadExReq_avg_mshr_miss_latency::.cpu.data        63440                       # average ReadExReq mshr miss latency
system.l2cache.ReadExReq_avg_mshr_miss_latency::total        63440                       # average ReadExReq mshr miss latency
system.l2cache.ReadSharedReq_hits::.cpu.inst          190                       # number of ReadSharedReq hits
system.l2cache.ReadSharedReq_hits::.cpu.data          183                       # number of ReadSharedReq hits
system.l2cache.ReadSharedReq_hits::.cpu.dcache.prefetcher           10                       # number of ReadSharedReq hits
system.l2cache.ReadSharedReq_hits::total          383                       # number of ReadSharedReq hits
system.l2cache.ReadSharedReq_misses::.cpu.inst          255                       # number of ReadSharedReq misses
system.l2cache.ReadSharedReq_misses::.cpu.data          156                       # number of ReadSharedReq misses
system.l2cache.ReadSharedReq_misses::.cpu.dcache.prefetcher           67                       # number of ReadSharedReq misses
system.l2cache.ReadSharedReq_misses::total          478                       # number of ReadSharedReq misses
system.l2cache.ReadSharedReq_miss_latency::.cpu.inst     16926000                       # number of ReadSharedReq miss cycles
system.l2cache.ReadSharedReq_miss_latency::.cpu.data     10428000                       # number of ReadSharedReq miss cycles
system.l2cache.ReadSharedReq_miss_latency::.cpu.dcache.prefetcher      5045938                       # number of ReadSharedReq miss cycles
system.l2cache.ReadSharedReq_miss_latency::total     32399938                       # number of ReadSharedReq miss cycles
system.l2cache.ReadSharedReq_accesses::.cpu.inst          445                       # number of ReadSharedReq accesses(hits+misses)
system.l2cache.ReadSharedReq_accesses::.cpu.data          339                       # number of ReadSharedReq accesses(hits+misses)
system.l2cache.ReadSharedReq_accesses::.cpu.dcache.prefetcher           77                       # number of ReadSharedReq accesses(hits+misses)
system.l2cache.ReadSharedReq_accesses::total          861                       # number of ReadSharedReq accesses(hits+misses)
system.l2cache.ReadSharedReq_miss_rate::.cpu.inst     0.573034                       # miss rate for ReadSharedReq accesses
system.l2cache.ReadSharedReq_miss_rate::.cpu.data     0.460177                       # miss rate for ReadSharedReq accesses
system.l2cache.ReadSharedReq_miss_rate::.cpu.dcache.prefetcher     0.870130                       # miss rate for ReadSharedReq accesses
system.l2cache.ReadSharedReq_miss_rate::total     0.555168                       # miss rate for ReadSharedReq accesses
system.l2cache.ReadSharedReq_avg_miss_latency::.cpu.inst 66376.470588                       # average ReadSharedReq miss latency
system.l2cache.ReadSharedReq_avg_miss_latency::.cpu.data 66846.153846                       # average ReadSharedReq miss latency
system.l2cache.ReadSharedReq_avg_miss_latency::.cpu.dcache.prefetcher 75312.507463                       # average ReadSharedReq miss latency
system.l2cache.ReadSharedReq_avg_miss_latency::total 67782.297071                       # average ReadSharedReq miss latency
system.l2cache.ReadSharedReq_mshr_misses::.cpu.inst          255                       # number of ReadSharedReq MSHR misses
system.l2cache.ReadSharedReq_mshr_misses::.cpu.data          156                       # number of ReadSharedReq MSHR misses
system.l2cache.ReadSharedReq_mshr_misses::.cpu.dcache.prefetcher           67                       # number of ReadSharedReq MSHR misses
system.l2cache.ReadSharedReq_mshr_misses::total          478                       # number of ReadSharedReq MSHR misses
system.l2cache.ReadSharedReq_mshr_miss_latency::.cpu.inst     14894000                       # number of ReadSharedReq MSHR miss cycles
system.l2cache.ReadSharedReq_mshr_miss_latency::.cpu.data      9180000                       # number of ReadSharedReq MSHR miss cycles
system.l2cache.ReadSharedReq_mshr_miss_latency::.cpu.dcache.prefetcher      4509938                       # number of ReadSharedReq MSHR miss cycles
system.l2cache.ReadSharedReq_mshr_miss_latency::total     28583938                       # number of ReadSharedReq MSHR miss cycles
system.l2cache.ReadSharedReq_mshr_miss_rate::.cpu.inst     0.573034                       # mshr miss rate for ReadSharedReq accesses
system.l2cache.ReadSharedReq_mshr_miss_rate::.cpu.data     0.460177                       # mshr miss rate for ReadSharedReq accesses
system.l2cache.ReadSharedReq_mshr_miss_rate::.cpu.dcache.prefetcher     0.870130                       # mshr miss rate for ReadSharedReq accesses
system.l2cache.ReadSharedReq_mshr_miss_rate::total     0.555168                       # mshr miss rate for ReadSharedReq accesses
system.l2cache.ReadSharedReq_avg_mshr_miss_latency::.cpu.inst 58407.843137                       # average ReadSharedReq mshr miss latency
system.l2cache.ReadSharedReq_avg_mshr_miss_latency::.cpu.data 58846.153846                       # average ReadSharedReq mshr miss latency
system.l2cache.ReadSharedReq_avg_mshr_miss_latency::.cpu.dcache.prefetcher 67312.507463                       # average ReadSharedReq mshr miss latency
system.l2cache.ReadSharedReq_avg_mshr_miss_latency::total 59799.033473                       # average ReadSharedReq mshr miss latency
system.l2cache.prefetcher.pwrStateResidencyTicks::UNDEFINED     32386800                       # Cumulative time (in ticks) in various power states
system.l2cache.tags.pwrStateResidencyTicks::UNDEFINED     32386800                       # Cumulative time (in ticks) in various power states
system.l2cache.tags.tagsinuse                    4096                       # Cycle average of tags in use
system.l2cache.tags.total_refs                  74187                       # Total number of references to valid blocks.
system.l2cache.tags.sampled_refs                 4585                       # Sample count of references to valid blocks.
system.l2cache.tags.avg_refs                16.180371                       # Average number of references to valid blocks.
system.l2cache.tags.warmup_cycle                    0                       # Cycle when the warmup percentage was hit.
system.l2cache.tags.occ_blocks::.writebacks    42.949411                       # Average occupied blocks per requestor
system.l2cache.tags.occ_blocks::.cpu.inst   997.316872                       # Average occupied blocks per requestor
system.l2cache.tags.occ_blocks::.cpu.data  1896.768225                       # Average occupied blocks per requestor
system.l2cache.tags.occ_blocks::.cpu.dcache.prefetcher   948.296527                       # Average occupied blocks per requestor
system.l2cache.tags.occ_blocks::.l2cache.prefetcher   210.668964                       # Average occupied blocks per requestor
system.l2cache.tags.occ_percent::.writebacks     0.010486                       # Average percentage of cache occupancy
system.l2cache.tags.occ_percent::.cpu.inst     0.243486                       # Average percentage of cache occupancy
system.l2cache.tags.occ_percent::.cpu.data     0.463078                       # Average percentage of cache occupancy
system.l2cache.tags.occ_percent::.cpu.dcache.prefetcher     0.231518                       # Average percentage of cache occupancy
system.l2cache.tags.occ_percent::.l2cache.prefetcher     0.051433                       # Average percentage of cache occupancy
system.l2cache.tags.occ_percent::total       1.000000                       # Average percentage of cache occupancy
system.l2cache.tags.occ_task_id_blocks::1022         1118                       # Occupied blocks per task id
system.l2cache.tags.occ_task_id_blocks::1024         2978                       # Occupied blocks per task id
system.l2cache.tags.age_task_id_blocks_1022::0           21                       # Occupied blocks per task id
system.l2cache.tags.age_task_id_blocks_1022::1           48                       # Occupied blocks per task id
system.l2cache.tags.age_task_id_blocks_1022::3         1049                       # Occupied blocks per task id
system.l2cache.tags.age_task_id_blocks_1024::0          180                       # Occupied blocks per task id
system.l2cache.tags.age_task_id_blocks_1024::1          240                       # Occupied blocks per task id
system.l2cache.tags.age_task_id_blocks_1024::3         2558                       # Occupied blocks per task id
system.l2cache.tags.occ_task_id_percent::1022     0.272949                       # Percentage of cache occupancy per task id
system.l2cache.tags.occ_task_id_percent::1024     0.727051                       # Percentage of cache occupancy per task id
system.l2cache.tags.tag_accesses                14481                       # Number of tag accesses
system.l2cache.tags.data_accesses               14481                       # Number of data accesses
system.mem_ctrl.pwrStateResidencyTicks::UNDEFINED     32386800                       # Cumulative time (in ticks) in various power states
system.mem_ctrl.bytes_read::.cpu.inst           16256                       # Number of bytes read from this memory
system.mem_ctrl.bytes_read::.cpu.data           10304                       # Number of bytes read from this memory
system.mem_ctrl.bytes_read::.cpu.dcache.prefetcher         4288                       # Number of bytes read from this memory
system.mem_ctrl.bytes_read::total               30848                       # Number of bytes read from this memory
system.mem_ctrl.bytes_inst_read::.cpu.inst        16256                       # Number of instructions bytes read from this memory
system.mem_ctrl.bytes_inst_read::total          16256                       # Number of instructions bytes read from this memory
system.mem_ctrl.bytes_written::.writebacks         1856                       # Number of bytes written to this memory
system.mem_ctrl.bytes_written::total             1856                       # Number of bytes written to this memory
system.mem_ctrl.num_reads::.cpu.inst              254                       # Number of read requests responded to by this memory
system.mem_ctrl.num_reads::.cpu.data              161                       # Number of read requests responded to by this memory
system.mem_ctrl.num_reads::.cpu.dcache.prefetcher           67                       # Number of read requests responded to by this memory
system.mem_ctrl.num_reads::total                  482                       # Number of read requests responded to by this memory
system.mem_ctrl.num_writes::.writebacks            29                       # Number of write requests responded to by this memory
system.mem_ctrl.num_writes::total                  29                       # Number of write requests responded to by this memory
system.mem_ctrl.bw_read::.cpu.inst          501932886                       # Total read bandwidth from this memory (bytes/s)
system.mem_ctrl.bw_read::.cpu.data          318154310                       # Total read bandwidth from this memory (bytes/s)
system.mem_ctrl.bw_read::.cpu.dcache.prefetcher    132399620                       # Total read bandwidth from this memory (bytes/s)
system.mem_ctrl.bw_read::total              952486816                       # Total read bandwidth from this memory (bytes/s)
system.mem_ctrl.bw_inst_read::.cpu.inst     501932886                       # Instruction read bandwidth from this memory (bytes/s)
system.mem_ctrl.bw_inst_read::total         501932886                       # Instruction read bandwidth from this memory (bytes/s)
system.mem_ctrl.bw_write::.writebacks        57307298                       # Write bandwidth from this memory (bytes/s)
system.mem_ctrl.bw_write::total              57307298                       # Write bandwidth from this memory (bytes/s)
system.mem_ctrl.bw_total::.writebacks        57307298                       # Total bandwidth to/from this memory (bytes/s)
system.mem_ctrl.bw_total::.cpu.inst         501932886                       # Total bandwidth to/from this memory (bytes/s)
system.mem_ctrl.bw_total::.cpu.data         318154310                       # Total bandwidth to/from this memory (bytes/s)
system.mem_ctrl.bw_total::.cpu.dcache.prefetcher    132399620                       # Total bandwidth to/from this memory (bytes/s)
system.mem_ctrl.bw_total::total            1009794114                       # Total bandwidth to/from this memory (bytes/s)

---------- End Simulation Statistics   ----------
