
---------- Begin Simulation Statistics ----------
final_tick                                 1473260400                       # Number of ticks from beginning of simulation (restored from checkpoints and never reset)
host_inst_rate                                 192556                       # Simulator instruction rate (inst/s)
host_mem_usage                                4406824                       # Number of bytes of host memory used
host_op_rate                                   346904                       # Simulator op (including micro ops) rate (op/s)
host_seconds                                    16.81                       # Real time elapsed on the host
host_tick_rate                               87621513                       # Simulator tick rate (ticks/s)
sim_freq                                 1000000000000                       # Frequency of simulated ticks
sim_insts                                     3237612                       # Number of instructions simulated
sim_ops                                       5832803                       # Number of ops (including micro ops) simulated
sim_seconds                                  0.001473                       # Number of seconds simulated
sim_ticks                                  1473260400                       # Number of ticks simulated
system.cpu.branchPred.BTBCorrect                    0                       # Number of correct BTB predictions (this stat may not work properly.
system.cpu.branchPred.BTBHitPct              0.000000                       # BTB Hit Percentage
system.cpu.branchPred.BTBHits                       0                       # Number of BTB hits
system.cpu.branchPred.BTBLookups               654753                       # Number of BTB lookups
system.cpu.branchPred.RASInCorrect                  8                       # Number of incorrect RAS predictions.
system.cpu.branchPred.condIncorrect             29099                       # Number of conditional branches incorrect
system.cpu.branchPred.condPredicted            683257                       # Number of conditional branches predicted
system.cpu.branchPred.indirectHits             355326                       # Number of indirect target hits.
system.cpu.branchPred.indirectLookups          654753                       # Number of indirect predictor lookups.
system.cpu.branchPred.indirectMisses           299427                       # Number of indirect misses.
system.cpu.branchPred.lookups                  746630                       # Number of BP lookups
system.cpu.branchPred.usedRAS                   30041                       # Number of times the RAS was used to get a target.
system.cpu.branchPredindirectMispredicted        15059                       # Number of mispredicted indirect branches.
system.cpu.cc_regfile_reads                   3663751                       # number of cc regfile reads
system.cpu.cc_regfile_writes                  2704282                       # number of cc regfile writes
system.cpu.commit.amos                              0                       # Number of atomic instructions committed
system.cpu.commit.branchMispredicts             29200                       # The number of times a branch was mispredicted
system.cpu.commit.branches                     583204                       # Number of branches committed
system.cpu.commit.bw_lim_events                945256                       # number cycles where commit BW limit reached
system.cpu.commit.commitNonSpecStalls             745                       # The number of times commit has been forced to stall to communicate backwards
system.cpu.commit.commitSquashedInsts          993941                       # The number of squashed insts skipped by commit
system.cpu.commit.committedInsts              3237612                       # Number of instructions committed
system.cpu.commit.committedOps                5832803                       # Number of ops (including micro ops) committed
system.cpu.commit.committed_per_cycle::samples      3245655                       # Number of insts commited each cycle
system.cpu.commit.committed_per_cycle::mean     1.797111                       # Number of insts commited each cycle
system.cpu.commit.committed_per_cycle::stdev     1.707545                       # Number of insts commited each cycle
system.cpu.commit.committed_per_cycle::underflows            0      0.00%      0.00% # Number of insts commited each cycle
system.cpu.commit.committed_per_cycle::0      1269022     39.10%     39.10% # Number of insts commited each cycle
system.cpu.commit.committed_per_cycle::1       375428     11.57%     50.67% # Number of insts commited each cycle
system.cpu.commit.committed_per_cycle::2       291496      8.98%     59.65% # Number of insts commited each cycle
system.cpu.commit.committed_per_cycle::3       364453     11.23%     70.88% # Number of insts commited each cycle
system.cpu.commit.committed_per_cycle::4       945256     29.12%    100.00% # Number of insts commited each cycle
system.cpu.commit.committed_per_cycle::overflows            0      0.00%    100.00% # Number of insts commited each cycle
system.cpu.commit.committed_per_cycle::min_value            0                       # Number of insts commited each cycle
system.cpu.commit.committed_per_cycle::max_value            4                       # Number of insts commited each cycle
system.cpu.commit.committed_per_cycle::total      3245655                       # Number of insts commited each cycle
system.cpu.commit.fp_insts                     148691                       # Number of committed floating point instructions.
system.cpu.commit.function_calls                27550                       # Number of function calls committed.
system.cpu.commit.int_insts                   5714048                       # Number of committed integer instructions.
system.cpu.commit.loads                        758080                       # Number of loads committed
system.cpu.commit.membars                           1                       # Number of memory barriers committed
system.cpu.commit.op_class_0::No_OpClass        28720      0.49%      0.49% # Class of committed instruction
system.cpu.commit.op_class_0::IntAlu          4550901     78.02%     78.51% # Class of committed instruction
system.cpu.commit.op_class_0::IntMult           13982      0.24%     78.75% # Class of committed instruction
system.cpu.commit.op_class_0::IntDiv            37743      0.65%     79.40% # Class of committed instruction
system.cpu.commit.op_class_0::FloatAdd           5968      0.10%     79.50% # Class of committed instruction
system.cpu.commit.op_class_0::FloatCmp              0      0.00%     79.50% # Class of committed instruction
system.cpu.commit.op_class_0::FloatCvt           1216      0.02%     79.52% # Class of committed instruction
system.cpu.commit.op_class_0::FloatMult             0      0.00%     79.52% # Class of committed instruction
system.cpu.commit.op_class_0::FloatMultAcc            0      0.00%     79.52% # Class of committed instruction
system.cpu.commit.op_class_0::FloatDiv              0      0.00%     79.52% # Class of committed instruction
system.cpu.commit.op_class_0::FloatMisc             0      0.00%     79.52% # Class of committed instruction
system.cpu.commit.op_class_0::FloatSqrt             0      0.00%     79.52% # Class of committed instruction
system.cpu.commit.op_class_0::SimdAdd            6262      0.11%     79.63% # Class of committed instruction
system.cpu.commit.op_class_0::SimdAddAcc            0      0.00%     79.63% # Class of committed instruction
system.cpu.commit.op_class_0::SimdAlu           23579      0.40%     80.04% # Class of committed instruction
system.cpu.commit.op_class_0::SimdCmp               0      0.00%     80.04% # Class of committed instruction
system.cpu.commit.op_class_0::SimdCvt           24504      0.42%     80.46% # Class of committed instruction
system.cpu.commit.op_class_0::SimdMisc          34220      0.59%     81.04% # Class of committed instruction
system.cpu.commit.op_class_0::SimdMult              0      0.00%     81.04% # Class of committed instruction
system.cpu.commit.op_class_0::SimdMultAcc            0      0.00%     81.04% # Class of committed instruction
system.cpu.commit.op_class_0::SimdShift          1229      0.02%     81.06% # Class of committed instruction
system.cpu.commit.op_class_0::SimdShiftAcc            0      0.00%     81.06% # Class of committed instruction
system.cpu.commit.op_class_0::SimdDiv               0      0.00%     81.06% # Class of committed instruction
system.cpu.commit.op_class_0::SimdSqrt              0      0.00%     81.06% # Class of committed instruction
system.cpu.commit.op_class_0::SimdFloatAdd            0      0.00%     81.06% # Class of committed instruction
system.cpu.commit.op_class_0::SimdFloatAlu            0      0.00%     81.06% # Class of committed instruction
system.cpu.commit.op_class_0::SimdFloatCmp            0      0.00%     81.06% # Class of committed instruction
system.cpu.commit.op_class_0::SimdFloatCvt            0      0.00%     81.06% # Class of committed instruction
system.cpu.commit.op_class_0::SimdFloatDiv            0      0.00%     81.06% # Class of committed instruction
system.cpu.commit.op_class_0::SimdFloatMisc            0      0.00%     81.06% # Class of committed instruction
system.cpu.commit.op_class_0::SimdFloatMult            0      0.00%     81.06% # Class of committed instruction
system.cpu.commit.op_class_0::SimdFloatMultAcc            0      0.00%     81.06% # Class of committed instruction
system.cpu.commit.op_class_0::SimdFloatSqrt            0      0.00%     81.06% # Class of committed instruction
system.cpu.commit.op_class_0::SimdReduceAdd            0      0.00%     81.06% # Class of committed instruction
system.cpu.commit.op_class_0::SimdReduceAlu            0      0.00%     81.06% # Class of committed instruction
system.cpu.commit.op_class_0::SimdReduceCmp            0      0.00%     81.06% # Class of committed instruction
system.cpu.commit.op_class_0::SimdFloatReduceAdd            0      0.00%     81.06% # Class of committed instruction
system.cpu.commit.op_class_0::SimdFloatReduceCmp            0      0.00%     81.06% # Class of committed instruction
system.cpu.commit.op_class_0::SimdAes               0      0.00%     81.06% # Class of committed instruction
system.cpu.commit.op_class_0::SimdAesMix            0      0.00%     81.06% # Class of committed instruction
system.cpu.commit.op_class_0::SimdSha1Hash            0      0.00%     81.06% # Class of committed instruction
system.cpu.commit.op_class_0::SimdSha1Hash2            0      0.00%     81.06% # Class of committed instruction
system.cpu.commit.op_class_0::SimdSha256Hash            0      0.00%     81.06% # Class of committed instruction
system.cpu.commit.op_class_0::SimdSha256Hash2            0      0.00%     81.06% # Class of committed instruction
system.cpu.commit.op_class_0::SimdShaSigma2            0      0.00%     81.06% # Class of committed instruction
system.cpu.commit.op_class_0::SimdShaSigma3            0      0.00%     81.06% # Class of committed instruction
system.cpu.commit.op_class_0::SimdPredAlu            0      0.00%     81.06% # Class of committed instruction
system.cpu.commit.op_class_0::MemRead          730600     12.53%     93.59% # Class of committed instruction
system.cpu.commit.op_class_0::MemWrite         332240      5.70%     99.29% # Class of committed instruction
system.cpu.commit.op_class_0::FloatMemRead        27480      0.47%     99.76% # Class of committed instruction
system.cpu.commit.op_class_0::FloatMemWrite        14159      0.24%    100.00% # Class of committed instruction
system.cpu.commit.op_class_0::IprAccess             0      0.00%    100.00% # Class of committed instruction
system.cpu.commit.op_class_0::InstPrefetch            0      0.00%    100.00% # Class of committed instruction
system.cpu.commit.op_class_0::total           5832803                       # Class of committed instruction
system.cpu.commit.refs                        1104479                       # Number of memory references committed
system.cpu.commit.swp_count                         0                       # Number of s/w prefetches committed
system.cpu.commit.vec_insts                         0                       # Number of committed Vector instructions.
system.cpu.committedInsts                     3237612                       # Number of Instructions Simulated
system.cpu.committedOps                       5832803                       # Number of Ops (including micro ops) Simulated
system.cpu.cpi                               1.137614                       # CPI: Cycles Per Instruction
system.cpu.cpi_total                         1.137614                       # CPI: Total CPI of All Threads
system.cpu.dcache.prefetcher.num_hwpf_issued         8485                       # number of hwpf issued
system.cpu.dcache.prefetcher.pfBufferHit        34223                       # number of redundant prefetches already in prefetch queue
system.cpu.dcache.prefetcher.pfIdentified        50280                       # number of prefetch candidates identified
system.cpu.dcache.prefetcher.pfInCache              0                       # number of redundant prefetches already in cache/mshr dropped
system.cpu.dcache.prefetcher.pfRemovedFull            0                       # number of prefetches dropped due to prefetch queue size
system.cpu.dcache.prefetcher.pfSpanPage          4872                       # number of prefetches that crossed the page
system.cpu.decode.BlockedCycles               1053661                       # Number of cycles decode is blocked
system.cpu.decode.DecodedInsts                7080357                       # Number of instructions handled by decode
system.cpu.decode.IdleCycles                   522459                       # Number of cycles decode is idle
system.cpu.decode.RunCycles                   1814245                       # Number of cycles decode is running
system.cpu.decode.SquashCycles                  29282                       # Number of cycles decode is squashing
system.cpu.decode.UnblockCycles                 97087                       # Number of cycles decode is unblocking
system.cpu.dtb.rdAccesses                      852801                       # TLB accesses on read requests
system.cpu.dtb.rdMisses                          1964                       # TLB misses on read requests
system.cpu.dtb.wrAccesses                      369365                       # TLB accesses on write requests
system.cpu.dtb.wrMisses                           152                       # TLB misses on write requests
system.cpu.fetch.Branches                      746630                       # Number of branches that fetch encountered
system.cpu.fetch.CacheLines                    445224                       # Number of cache lines fetched
system.cpu.fetch.Cycles                       2941166                       # Number of cycles fetch has run and was not squashing or blocked
system.cpu.fetch.IcacheSquashes                  5450                       # Number of outstanding Icache misses that were squashed
system.cpu.fetch.IcacheWaitRetryStallCycles           33                       # Number of stall cycles due to full MSHR
system.cpu.fetch.Insts                        4099712                       # Number of instructions fetch has processed
system.cpu.fetch.MiscStallCycles                  113                       # Number of cycles fetch has spent waiting on interrupts, or bad addresses, or out of MSHRs
system.cpu.fetch.PendingQuiesceStallCycles            6                       # Number of stall cycles due to pending quiesce instructions
system.cpu.fetch.PendingTrapStallCycles           761                       # Number of stall cycles due to pending traps
system.cpu.fetch.SquashCycles                   58564                       # Number of cycles fetch has spent squashing
system.cpu.fetch.branchRate                  0.202715                       # Number of branch fetches per cycle
system.cpu.fetch.icacheStallCycles             545373                       # Number of cycles fetch is stalled on an Icache miss
system.cpu.fetch.predictedBranches             385367                       # Number of branches that fetch has predicted taken
system.cpu.fetch.rate                        1.113099                       # Number of inst fetches per cycle
system.cpu.fetch.rateDist::samples            3516734                       # Number of instructions fetched each cycle (Total)
system.cpu.fetch.rateDist::mean              2.096713                       # Number of instructions fetched each cycle (Total)
system.cpu.fetch.rateDist::stdev             1.910966                       # Number of instructions fetched each cycle (Total)
system.cpu.fetch.rateDist::underflows               0      0.00%      0.00% # Number of instructions fetched each cycle (Total)
system.cpu.fetch.rateDist::0                  1479204     42.06%     42.06% # Number of instructions fetched each cycle (Total)
system.cpu.fetch.rateDist::1                   159982      4.55%     46.61% # Number of instructions fetched each cycle (Total)
system.cpu.fetch.rateDist::2                    89027      2.53%     49.14% # Number of instructions fetched each cycle (Total)
system.cpu.fetch.rateDist::3                   118539      3.37%     52.51% # Number of instructions fetched each cycle (Total)
system.cpu.fetch.rateDist::4                  1669982     47.49%    100.00% # Number of instructions fetched each cycle (Total)
system.cpu.fetch.rateDist::overflows                0      0.00%    100.00% # Number of instructions fetched each cycle (Total)
system.cpu.fetch.rateDist::min_value                0                       # Number of instructions fetched each cycle (Total)
system.cpu.fetch.rateDist::max_value                4                       # Number of instructions fetched each cycle (Total)
system.cpu.fetch.rateDist::total              3516734                       # Number of instructions fetched each cycle (Total)
system.cpu.fp_regfile_reads                    249365                       # number of floating regfile reads
system.cpu.fp_regfile_writes                   133334                       # number of floating regfile writes
system.cpu.fuPool.fu_ticks_busy::IntALU(0)    335372800                       # Total ticks fu was busy
system.cpu.fuPool.fu_ticks_busy::IntALU(1)    335372800                       # Total ticks fu was busy
system.cpu.fuPool.fu_ticks_busy::IntALU(2)    335372400                       # Total ticks fu was busy
system.cpu.fuPool.fu_ticks_busy::IntALU(3)    335372400                       # Total ticks fu was busy
system.cpu.fuPool.fu_ticks_busy::IntALU(4)    335372400                       # Total ticks fu was busy
system.cpu.fuPool.fu_ticks_busy::IntALU(5)    335372400                       # Total ticks fu was busy
system.cpu.fuPool.fu_ticks_busy::IntMultDiv(0)     11126000                       # Total ticks fu was busy
system.cpu.fuPool.fu_ticks_busy::IntMultDiv(1)     11126000                       # Total ticks fu was busy
system.cpu.fuPool.fu_ticks_busy::FP_ALU(0)       882800                       # Total ticks fu was busy
system.cpu.fuPool.fu_ticks_busy::FP_ALU(1)       882800                       # Total ticks fu was busy
system.cpu.fuPool.fu_ticks_busy::FP_ALU(2)       882000                       # Total ticks fu was busy
system.cpu.fuPool.fu_ticks_busy::FP_ALU(3)       882000                       # Total ticks fu was busy
system.cpu.fuPool.fu_ticks_busy::FP_MultDiv(0)            0                       # Total ticks fu was busy
system.cpu.fuPool.fu_ticks_busy::FP_MultDiv(1)            0                       # Total ticks fu was busy
system.cpu.fuPool.fu_ticks_busy::SIMD_Unit(0)      9475600                       # Total ticks fu was busy
system.cpu.fuPool.fu_ticks_busy::SIMD_Unit(1)      9851600                       # Total ticks fu was busy
system.cpu.fuPool.fu_ticks_busy::SIMD_Unit(2)      9866800                       # Total ticks fu was busy
system.cpu.fuPool.fu_ticks_busy::SIMD_Unit(3)      9891200                       # Total ticks fu was busy
system.cpu.fuPool.fu_ticks_busy::PredALU(0)            0                       # Total ticks fu was busy
system.cpu.fuPool.fu_ticks_busy::RdWrPort(0)    123940800                       # Total ticks fu was busy
system.cpu.fuPool.fu_ticks_busy::RdWrPort(1)    123912000                       # Total ticks fu was busy
system.cpu.fuPool.fu_ticks_busy::RdWrPort(2)    123880000                       # Total ticks fu was busy
system.cpu.fuPool.fu_ticks_busy::RdWrPort(3)    123915200                       # Total ticks fu was busy
system.cpu.fuPool.fu_ticks_busy::IprPort(0)            0                       # Total ticks fu was busy
system.cpu.fuPool.fu_ticks_busy::total     2572750000                       # Total ticks fu was busy
system.cpu.icache.prefetcher.num_hwpf_issued            0                       # number of hwpf issued
system.cpu.icache.prefetcher.pfBufferHit            0                       # number of redundant prefetches already in prefetch queue
system.cpu.icache.prefetcher.pfIdentified            0                       # number of prefetch candidates identified
system.cpu.icache.prefetcher.pfInCache              0                       # number of redundant prefetches already in cache/mshr dropped
system.cpu.icache.prefetcher.pfRemovedFull            0                       # number of prefetches dropped due to prefetch queue size
system.cpu.icache.prefetcher.pfSpanPage             0                       # number of prefetches that crossed the page
system.cpu.idleCycles                          166418                       # Total number of cycles that the CPU has spent unscheduled due to idling
system.cpu.iew.branchMispredicts                34546                       # Number of branch mispredicts detected at execute
system.cpu.iew.exec_branches                   618545                       # Number of branches executed
system.cpu.iew.exec_nop                             0                       # number of nop insts executed
system.cpu.iew.exec_rate                     1.744615                       # Inst execution rate
system.cpu.iew.exec_refs                      1223446                       # number of memory reference insts executed
system.cpu.iew.exec_stores                     368903                       # Number of stores executed
system.cpu.iew.exec_swp                             0                       # number of swp insts executed
system.cpu.iew.iewBlockCycles                  716565                       # Number of cycles IEW is blocking
system.cpu.iew.iewDispLoadInsts                891365                       # Number of dispatched load instructions
system.cpu.iew.iewDispNonSpecInsts                989                       # Number of dispatched non-speculative instructions
system.cpu.iew.iewDispSquashedInsts               611                       # Number of squashed instructions skipped by dispatch
system.cpu.iew.iewDispStoreInsts               383861                       # Number of dispatched store instructions
system.cpu.iew.iewDispatchedInsts             6826691                       # Number of instructions dispatched to IQ
system.cpu.iew.iewExecLoadInsts                854543                       # Number of load instructions executed
system.cpu.iew.iewExecSquashedInsts             42138                       # Number of squashed instructions skipped in execute
system.cpu.iew.iewExecutedInsts               6425681                       # Number of executed instructions
system.cpu.iew.iewIQFullEvents                   3232                       # Number of times the IQ has become full, causing a stall
system.cpu.iew.iewIdleCycles                        0                       # Number of cycles IEW is idle
system.cpu.iew.iewLSQFullEvents                  9082                       # Number of times the LSQ has become full, causing a stall
system.cpu.iew.iewSquashCycles                  29282                       # Number of cycles IEW is squashing
system.cpu.iew.iewUnblockCycles                 15152                       # Number of cycles IEW is unblocking
system.cpu.iew.lsq.thread0.blockedLoads             0                       # Number of blocked loads due to partial load-store forwarding
system.cpu.iew.lsq.thread0.cacheBlocked           646                       # Number of times an access to memory failed due to the cache being blocked
system.cpu.iew.lsq.thread0.forwLoads            53774                       # Number of loads that had data forwarded from stores
system.cpu.iew.lsq.thread0.ignoredResponses          287                       # Number of memory responses ignored because the instruction is squashed
system.cpu.iew.lsq.thread0.invAddrLoads             0                       # Number of loads ignored due to an invalid address
system.cpu.iew.lsq.thread0.invAddrSwpfs             0                       # Number of software prefetches ignored due to an invalid address
system.cpu.iew.lsq.thread0.memOrderViolation           96                       # Number of memory ordering violations
system.cpu.iew.lsq.thread0.rescheduledLoads           64                       # Number of loads that were rescheduled
system.cpu.iew.lsq.thread0.squashedLoads       133283                       # Number of loads squashed
system.cpu.iew.lsq.thread0.squashedStores        37461                       # Number of stores squashed
system.cpu.iew.memOrderViolationEvents             96                       # Number of memory order violations
system.cpu.iew.predictedNotTakenIncorrect        25354                       # Number of branches that were predicted not taken incorrectly
system.cpu.iew.predictedTakenIncorrect           9192                       # Number of branches that were predicted taken incorrectly
system.cpu.iew.wb_consumers                   8391178                       # num instructions consuming a value
system.cpu.iew.wb_count                       6400726                       # cumulative count of insts written-back
system.cpu.iew.wb_fanout                     0.584856                       # average fanout of values written-back
system.cpu.iew.wb_producers                   4907627                       # num instructions producing a value
system.cpu.iew.wb_rate                       1.737839                       # insts written-back per cycle
system.cpu.iew.wb_sent                        6409192                       # cumulative count of insts sent to commit
system.cpu.int_regfile_reads                  9847608                       # number of integer regfile reads
system.cpu.int_regfile_writes                 5363885                       # number of integer regfile writes
system.cpu.ipc                               0.879033                       # IPC: Instructions Per Cycle
system.cpu.ipc_total                         0.879033                       # IPC: Total IPC of All Threads
system.cpu.iq.FU_type_0::No_OpClass             35944      0.56%      0.56% # Type of FU issued
system.cpu.iq.FU_type_0::IntAlu               5030589     77.78%     78.33% # Type of FU issued
system.cpu.iq.FU_type_0::IntMult                14006      0.22%     78.55% # Type of FU issued
system.cpu.iq.FU_type_0::IntDiv                 41624      0.64%     79.19% # Type of FU issued
system.cpu.iq.FU_type_0::FloatAdd                7566      0.12%     79.31% # Type of FU issued
system.cpu.iq.FU_type_0::FloatCmp                   0      0.00%     79.31% # Type of FU issued
system.cpu.iq.FU_type_0::FloatCvt                1258      0.02%     79.33% # Type of FU issued
system.cpu.iq.FU_type_0::FloatMult                  0      0.00%     79.33% # Type of FU issued
system.cpu.iq.FU_type_0::FloatMultAcc               0      0.00%     79.33% # Type of FU issued
system.cpu.iq.FU_type_0::FloatDiv                   0      0.00%     79.33% # Type of FU issued
system.cpu.iq.FU_type_0::FloatMisc                  0      0.00%     79.33% # Type of FU issued
system.cpu.iq.FU_type_0::FloatSqrt                  0      0.00%     79.33% # Type of FU issued
system.cpu.iq.FU_type_0::SimdAdd                 6886      0.11%     79.44% # Type of FU issued
system.cpu.iq.FU_type_0::SimdAddAcc                 0      0.00%     79.44% # Type of FU issued
system.cpu.iq.FU_type_0::SimdAlu                27391      0.42%     79.86% # Type of FU issued
system.cpu.iq.FU_type_0::SimdCmp                    0      0.00%     79.86% # Type of FU issued
system.cpu.iq.FU_type_0::SimdCvt                26254      0.41%     80.27% # Type of FU issued
system.cpu.iq.FU_type_0::SimdMisc               34766      0.54%     80.80% # Type of FU issued
system.cpu.iq.FU_type_0::SimdMult                   0      0.00%     80.80% # Type of FU issued
system.cpu.iq.FU_type_0::SimdMultAcc                0      0.00%     80.80% # Type of FU issued
system.cpu.iq.FU_type_0::SimdShift               2416      0.04%     80.84% # Type of FU issued
system.cpu.iq.FU_type_0::SimdShiftAcc               0      0.00%     80.84% # Type of FU issued
system.cpu.iq.FU_type_0::SimdDiv                    0      0.00%     80.84% # Type of FU issued
system.cpu.iq.FU_type_0::SimdSqrt                   0      0.00%     80.84% # Type of FU issued
system.cpu.iq.FU_type_0::SimdFloatAdd               0      0.00%     80.84% # Type of FU issued
system.cpu.iq.FU_type_0::SimdFloatAlu               0      0.00%     80.84% # Type of FU issued
system.cpu.iq.FU_type_0::SimdFloatCmp               0      0.00%     80.84% # Type of FU issued
system.cpu.iq.FU_type_0::SimdFloatCvt               0      0.00%     80.84% # Type of FU issued
system.cpu.iq.FU_type_0::SimdFloatDiv               0      0.00%     80.84% # Type of FU issued
system.cpu.iq.FU_type_0::SimdFloatMisc              0      0.00%     80.84% # Type of FU issued
system.cpu.iq.FU_type_0::SimdFloatMult              0      0.00%     80.84% # Type of FU issued
system.cpu.iq.FU_type_0::SimdFloatMultAcc            0      0.00%     80.84% # Type of FU issued
system.cpu.iq.FU_type_0::SimdFloatSqrt              0      0.00%     80.84% # Type of FU issued
system.cpu.iq.FU_type_0::SimdReduceAdd              0      0.00%     80.84% # Type of FU issued
system.cpu.iq.FU_type_0::SimdReduceAlu              0      0.00%     80.84% # Type of FU issued
system.cpu.iq.FU_type_0::SimdReduceCmp              0      0.00%     80.84% # Type of FU issued
system.cpu.iq.FU_type_0::SimdFloatReduceAdd            0      0.00%     80.84% # Type of FU issued
system.cpu.iq.FU_type_0::SimdFloatReduceCmp            0      0.00%     80.84% # Type of FU issued
system.cpu.iq.FU_type_0::SimdAes                    0      0.00%     80.84% # Type of FU issued
system.cpu.iq.FU_type_0::SimdAesMix                 0      0.00%     80.84% # Type of FU issued
system.cpu.iq.FU_type_0::SimdSha1Hash               0      0.00%     80.84% # Type of FU issued
system.cpu.iq.FU_type_0::SimdSha1Hash2              0      0.00%     80.84% # Type of FU issued
system.cpu.iq.FU_type_0::SimdSha256Hash             0      0.00%     80.84% # Type of FU issued
system.cpu.iq.FU_type_0::SimdSha256Hash2            0      0.00%     80.84% # Type of FU issued
system.cpu.iq.FU_type_0::SimdShaSigma2              0      0.00%     80.84% # Type of FU issued
system.cpu.iq.FU_type_0::SimdShaSigma3              0      0.00%     80.84% # Type of FU issued
system.cpu.iq.FU_type_0::SimdPredAlu                0      0.00%     80.84% # Type of FU issued
system.cpu.iq.FU_type_0::MemRead               833205     12.88%     93.72% # Type of FU issued
system.cpu.iq.FU_type_0::MemWrite              356810      5.52%     99.24% # Type of FU issued
system.cpu.iq.FU_type_0::FloatMemRead           33489      0.52%     99.76% # Type of FU issued
system.cpu.iq.FU_type_0::FloatMemWrite          15618      0.24%    100.00% # Type of FU issued
system.cpu.iq.FU_type_0::IprAccess                  0      0.00%    100.00% # Type of FU issued
system.cpu.iq.FU_type_0::InstPrefetch               0      0.00%    100.00% # Type of FU issued
system.cpu.iq.FU_type_0::total                6467822                       # Type of FU issued
system.cpu.iq.fp_alu_accesses                  165914                       # Number of floating point alu accesses
system.cpu.iq.fp_inst_queue_reads              333199                       # Number of floating instruction queue reads
system.cpu.iq.fp_inst_queue_wakeup_accesses       162411                       # Number of floating instruction queue wakeup accesses
system.cpu.iq.fp_inst_queue_writes             207643                       # Number of floating instruction queue writes
system.cpu.iq.fu_busy_cnt                           0                       # FU busy when requested
system.cpu.iq.fu_busy_rate                          0                       # FU busy rate (busy events/executed inst)
system.cpu.iq.fu_full::No_OpClass                   0                       # attempts to use FU when none available
system.cpu.iq.fu_full::IntAlu                       0                       # attempts to use FU when none available
system.cpu.iq.fu_full::IntMult                      0                       # attempts to use FU when none available
system.cpu.iq.fu_full::IntDiv                       0                       # attempts to use FU when none available
system.cpu.iq.fu_full::FloatAdd                     0                       # attempts to use FU when none available
system.cpu.iq.fu_full::FloatCmp                     0                       # attempts to use FU when none available
system.cpu.iq.fu_full::FloatCvt                     0                       # attempts to use FU when none available
system.cpu.iq.fu_full::FloatMult                    0                       # attempts to use FU when none available
system.cpu.iq.fu_full::FloatMultAcc                 0                       # attempts to use FU when none available
system.cpu.iq.fu_full::FloatDiv                     0                       # attempts to use FU when none available
system.cpu.iq.fu_full::FloatMisc                    0                       # attempts to use FU when none available
system.cpu.iq.fu_full::FloatSqrt                    0                       # attempts to use FU when none available
system.cpu.iq.fu_full::SimdAdd                      0                       # attempts to use FU when none available
system.cpu.iq.fu_full::SimdAddAcc                   0                       # attempts to use FU when none available
system.cpu.iq.fu_full::SimdAlu                      0                       # attempts to use FU when none available
system.cpu.iq.fu_full::SimdCmp                      0                       # attempts to use FU when none available
system.cpu.iq.fu_full::SimdCvt                      0                       # attempts to use FU when none available
system.cpu.iq.fu_full::SimdMisc                     0                       # attempts to use FU when none available
system.cpu.iq.fu_full::SimdMult                     0                       # attempts to use FU when none available
system.cpu.iq.fu_full::SimdMultAcc                  0                       # attempts to use FU when none available
system.cpu.iq.fu_full::SimdShift                    0                       # attempts to use FU when none available
system.cpu.iq.fu_full::SimdShiftAcc                 0                       # attempts to use FU when none available
system.cpu.iq.fu_full::SimdDiv                      0                       # attempts to use FU when none available
system.cpu.iq.fu_full::SimdSqrt                     0                       # attempts to use FU when none available
system.cpu.iq.fu_full::SimdFloatAdd                 0                       # attempts to use FU when none available
system.cpu.iq.fu_full::SimdFloatAlu                 0                       # attempts to use FU when none available
system.cpu.iq.fu_full::SimdFloatCmp                 0                       # attempts to use FU when none available
system.cpu.iq.fu_full::SimdFloatCvt                 0                       # attempts to use FU when none available
system.cpu.iq.fu_full::SimdFloatDiv                 0                       # attempts to use FU when none available
system.cpu.iq.fu_full::SimdFloatMisc                0                       # attempts to use FU when none available
system.cpu.iq.fu_full::SimdFloatMult                0                       # attempts to use FU when none available
system.cpu.iq.fu_full::SimdFloatMultAcc             0                       # attempts to use FU when none available
system.cpu.iq.fu_full::SimdFloatSqrt                0                       # attempts to use FU when none available
system.cpu.iq.fu_full::SimdReduceAdd                0                       # attempts to use FU when none available
system.cpu.iq.fu_full::SimdReduceAlu                0                       # attempts to use FU when none available
system.cpu.iq.fu_full::SimdReduceCmp                0                       # attempts to use FU when none available
system.cpu.iq.fu_full::SimdFloatReduceAdd            0                       # attempts to use FU when none available
system.cpu.iq.fu_full::SimdFloatReduceCmp            0                       # attempts to use FU when none available
system.cpu.iq.fu_full::SimdAes                      0                       # attempts to use FU when none available
system.cpu.iq.fu_full::SimdAesMix                   0                       # attempts to use FU when none available
system.cpu.iq.fu_full::SimdSha1Hash                 0                       # attempts to use FU when none available
system.cpu.iq.fu_full::SimdSha1Hash2                0                       # attempts to use FU when none available
system.cpu.iq.fu_full::SimdSha256Hash               0                       # attempts to use FU when none available
system.cpu.iq.fu_full::SimdSha256Hash2              0                       # attempts to use FU when none available
system.cpu.iq.fu_full::SimdShaSigma2                0                       # attempts to use FU when none available
system.cpu.iq.fu_full::SimdShaSigma3                0                       # attempts to use FU when none available
system.cpu.iq.fu_full::SimdPredAlu                  0                       # attempts to use FU when none available
system.cpu.iq.fu_full::MemRead                      0                       # attempts to use FU when none available
system.cpu.iq.fu_full::MemWrite                     0                       # attempts to use FU when none available
system.cpu.iq.fu_full::FloatMemRead                 0                       # attempts to use FU when none available
system.cpu.iq.fu_full::FloatMemWrite                0                       # attempts to use FU when none available
system.cpu.iq.fu_full::IprAccess                    0                       # attempts to use FU when none available
system.cpu.iq.fu_full::InstPrefetch                 0                       # attempts to use FU when none available
system.cpu.iq.int_alu_accesses                6265964                       # Number of integer alu accesses
system.cpu.iq.int_inst_queue_reads           16140232                       # Number of integer instruction queue reads
system.cpu.iq.int_inst_queue_wakeup_accesses      6238315                       # Number of integer instruction queue wakeup accesses
system.cpu.iq.int_inst_queue_writes           7613020                       # Number of integer instruction queue writes
system.cpu.iq.iqInstsAdded                    6825424                       # Number of instructions added to the IQ (excludes non-spec)
system.cpu.iq.iqInstsIssued                   6467822                       # Number of instructions issued
system.cpu.iq.iqNonSpecInstsAdded                1267                       # Number of non-speculative instructions added to the IQ
system.cpu.iq.iqSquashedInstsExamined          993877                       # Number of squashed instructions iterated over during squash; mainly for profiling
system.cpu.iq.iqSquashedInstsIssued             21056                       # Number of squashed instructions issued
system.cpu.iq.iqSquashedNonSpecRemoved            522                       # Number of squashed non-spec instructions that were removed
system.cpu.iq.iqSquashedOperandsExamined      1483646                       # Number of squashed operands that are examined and possibly removed from graph
system.cpu.iq.issued_per_cycle::samples       3516734                       # Number of insts issued each cycle
system.cpu.iq.issued_per_cycle::mean         1.839156                       # Number of insts issued each cycle
system.cpu.iq.issued_per_cycle::stdev        1.635000                       # Number of insts issued each cycle
system.cpu.iq.issued_per_cycle::underflows            0      0.00%      0.00% # Number of insts issued each cycle
system.cpu.iq.issued_per_cycle::0             1277745     36.33%     36.33% # Number of insts issued each cycle
system.cpu.iq.issued_per_cycle::1              322012      9.16%     45.49% # Number of insts issued each cycle
system.cpu.iq.issued_per_cycle::2              478695     13.61%     59.10% # Number of insts issued each cycle
system.cpu.iq.issued_per_cycle::3              564708     16.06%     75.16% # Number of insts issued each cycle
system.cpu.iq.issued_per_cycle::4              873574     24.84%    100.00% # Number of insts issued each cycle
system.cpu.iq.issued_per_cycle::overflows            0      0.00%    100.00% # Number of insts issued each cycle
system.cpu.iq.issued_per_cycle::min_value            0                       # Number of insts issued each cycle
system.cpu.iq.issued_per_cycle::max_value            4                       # Number of insts issued each cycle
system.cpu.iq.issued_per_cycle::total         3516734                       # Number of insts issued each cycle
system.cpu.iq.rate                           1.756056                       # Inst issue rate
system.cpu.iq.vec_alu_accesses                      0                       # Number of vector alu accesses
system.cpu.iq.vec_inst_queue_reads                  0                       # Number of vector instruction queue reads
system.cpu.iq.vec_inst_queue_wakeup_accesses            0                       # Number of vector instruction queue wakeup accesses
system.cpu.iq.vec_inst_queue_writes                 0                       # Number of vector instruction queue writes
system.cpu.itb.rdAccesses                           0                       # TLB accesses on read requests
system.cpu.itb.rdMisses                             0                       # TLB misses on read requests
system.cpu.itb.wrAccesses                      445345                       # TLB accesses on write requests
system.cpu.itb.wrMisses                           376                       # TLB misses on write requests
system.cpu.memDep0.conflictingLoads             22635                       # Number of conflicting loads.
system.cpu.memDep0.conflictingStores             6813                       # Number of conflicting stores.
system.cpu.memDep0.insertedLoads               891365                       # Number of loads inserted to the mem dependence unit.
system.cpu.memDep0.insertedStores              383861                       # Number of stores inserted to the mem dependence unit.
system.cpu.misc_regfile_reads                 2507338                       # number of misc regfile reads
system.cpu.misc_regfile_writes                    684                       # number of misc regfile writes
system.cpu.numCycles                          3683152                       # number of cpu cycles simulated
system.cpu.numWorkItemsCompleted                    0                       # number of work items this cpu completed
system.cpu.numWorkItemsStarted                      0                       # number of work items this cpu started
system.cpu.process.numSyscalls                     60                       # Number of system calls
system.cpu.rename.BlockCycles                  858279                       # Number of cycles rename is blocking
system.cpu.rename.CommittedMaps               7516417                       # Number of HB maps that are committed
system.cpu.rename.FullRegisterEvents              161                       # Number of times there has been no free registers
system.cpu.rename.IQFullEvents                  51857                       # Number of times rename has blocked due to IQ full
system.cpu.rename.IdleCycles                   577949                       # Number of cycles rename is idle
system.cpu.rename.LQFullEvents                  18256                       # Number of times rename has blocked due to LQ full
system.cpu.rename.ROBFullEvents                  4560                       # Number of times rename has blocked due to ROB full
system.cpu.rename.RenameLookups              18136759                       # Number of register rename lookups that rename has made
system.cpu.rename.RenamedInsts                6996252                       # Number of instructions processed by rename
system.cpu.rename.RenamedOperands             9060948                       # Number of destination operands rename has renamed
system.cpu.rename.RunCycles                   1846821                       # Number of cycles rename is running
system.cpu.rename.SQFullEvents                  74926                       # Number of times rename has blocked due to SQ full
system.cpu.rename.SquashCycles                  29282                       # Number of cycles rename is squashing
system.cpu.rename.UnblockCycles                184248                       # Number of cycles rename is unblocking
system.cpu.rename.UndoneMaps                  1544508                       # Number of HB maps that are undone due to squashing
system.cpu.rename.fp_rename_lookups            284489                       # Number of floating rename lookups
system.cpu.rename.int_rename_lookups         10921533                       # Number of integer rename lookups
system.cpu.rename.serializeStallCycles          20155                       # count of cycles rename stalled for serializing inst
system.cpu.rename.serializingInsts                885                       # count of serializing insts renamed
system.cpu.rename.skidInsts                    220807                       # count of insts added to the skid buffer
system.cpu.rename.tempSerializingInsts            939                       # count of temporary serializing insts renamed
system.cpu.rob.rob_reads                      9127143                       # The number of ROB reads
system.cpu.rob.rob_writes                    13925525                       # The number of ROB writes
system.cpu.timesIdled                            1846                       # Number of times that the entire CPU went into an idle state and unscheduled itself
system.l2bus.snoop_filter.hit_multi_requests           10                       # Number of requests hitting in the snoop filter with multiple (>1) holders of the requested data.
system.l2bus.snoop_filter.hit_multi_snoops            0                       # Number of snoops hitting in the snoop filter with multiple (>1) holders of the requested data.
system.l2bus.snoop_filter.hit_single_requests        19255                       # Number of requests hitting in the snoop filter with a single holder of the requested data.
system.l2bus.snoop_filter.hit_single_snoops          438                       # Number of snoops hitting in the snoop filter with a single holder of the requested data.
system.l2bus.snoop_filter.tot_requests          39788                       # Total number of requests made to the snoop filter.
system.l2bus.snoop_filter.tot_snoops              438                       # Total number of snoops made to the snoop filter.
system.l2cache.prefetcher.num_hwpf_issued          703                       # number of hwpf issued
system.l2cache.prefetcher.pfBufferHit               0                       # number of redundant prefetches already in prefetch queue
system.l2cache.prefetcher.pfIdentified            703                       # number of prefetch candidates identified
system.l2cache.prefetcher.pfInCache                 0                       # number of redundant prefetches already in cache/mshr dropped
system.l2cache.prefetcher.pfRemovedFull             0                       # number of prefetches dropped due to prefetch queue size
system.l2cache.prefetcher.pfSpanPage              117                       # number of prefetches that crossed the page
system.membus.snoop_filter.hit_multi_requests            0                       # Number of requests hitting in the snoop filter with multiple (>1) holders of the requested data.
system.membus.snoop_filter.hit_multi_snoops            0                       # Number of snoops hitting in the snoop filter with multiple (>1) holders of the requested data.
system.membus.snoop_filter.hit_single_requests         9604                       # Number of requests hitting in the snoop filter with a single holder of the requested data.
system.membus.snoop_filter.hit_single_snoops            0                       # Number of snoops hitting in the snoop filter with a single holder of the requested data.
system.membus.snoop_filter.tot_requests         23325                       # Total number of requests made to the snoop filter.
system.membus.snoop_filter.tot_snoops               0                       # Total number of snoops made to the snoop filter.
system.membus.pwrStateResidencyTicks::UNDEFINED   1473260400                       # Cumulative time (in ticks) in various power states
system.membus.trans_dist::ReadResp              12232                       # Transaction distribution
system.membus.trans_dist::WritebackDirty         1343                       # Transaction distribution
system.membus.trans_dist::CleanEvict             8261                       # Transaction distribution
system.membus.trans_dist::ReadExReq              1489                       # Transaction distribution
system.membus.trans_dist::ReadExResp             1489                       # Transaction distribution
system.membus.trans_dist::ReadSharedReq         12232                       # Transaction distribution
system.membus.pkt_count_system.l2cache.mem_side::system.mem_ctrl.port        37046                       # Packet count per connected master and slave (bytes)
system.membus.pkt_count_system.l2cache.mem_side::total        37046                       # Packet count per connected master and slave (bytes)
system.membus.pkt_count::total                  37046                       # Packet count per connected master and slave (bytes)
system.membus.pkt_size_system.l2cache.mem_side::system.mem_ctrl.port       964096                       # Cumulative packet size per connected master and slave (bytes)
system.membus.pkt_size_system.l2cache.mem_side::total       964096                       # Cumulative packet size per connected master and slave (bytes)
system.membus.pkt_size::total                  964096                       # Cumulative packet size per connected master and slave (bytes)
system.membus.snoops                                0                       # Total snoops (count)
system.membus.snoopTraffic                          0                       # Total snoop traffic (bytes)
system.membus.snoop_fanout::samples             13721                       # Request fanout histogram
system.membus.snoop_fanout::mean                    0                       # Request fanout histogram
system.membus.snoop_fanout::stdev                   0                       # Request fanout histogram
system.membus.snoop_fanout::underflows              0      0.00%      0.00% # Request fanout histogram
system.membus.snoop_fanout::0                   13721    100.00%    100.00% # Request fanout histogram
system.membus.snoop_fanout::1                       0      0.00%    100.00% # Request fanout histogram
system.membus.snoop_fanout::overflows               0      0.00%    100.00% # Request fanout histogram
system.membus.snoop_fanout::min_value               0                       # Request fanout histogram
system.membus.snoop_fanout::max_value               0                       # Request fanout histogram
system.membus.snoop_fanout::total               13721                       # Request fanout histogram
system.membus.reqLayer2.occupancy            11509786                       # Layer occupancy (ticks)
system.membus.reqLayer2.utilization               0.8                       # Layer utilization (%)
system.membus.respLayer0.occupancy           29756314                       # Layer occupancy (ticks)
system.membus.respLayer0.utilization              2.0                       # Layer utilization (%)
system.l2bus.pwrStateResidencyTicks::UNDEFINED   1473260400                       # Cumulative time (in ticks) in various power states
system.l2bus.trans_dist::ReadResp               18295                       # Transaction distribution
system.l2bus.trans_dist::WritebackDirty          4174                       # Transaction distribution
system.l2bus.trans_dist::CleanEvict             24766                       # Transaction distribution
system.l2bus.trans_dist::HardPFReq                991                       # Transaction distribution
system.l2bus.trans_dist::UpgradeReq                 1                       # Transaction distribution
system.l2bus.trans_dist::UpgradeResp                1                       # Transaction distribution
system.l2bus.trans_dist::ReadExReq               2239                       # Transaction distribution
system.l2bus.trans_dist::ReadExResp              2239                       # Transaction distribution
system.l2bus.trans_dist::ReadSharedReq          18295                       # Transaction distribution
system.l2bus.pkt_count_system.cpu.icache.mem_side::system.l2cache.cpu_side         9875                       # Packet count per connected master and slave (bytes)
system.l2bus.pkt_count_system.cpu.dcache.mem_side::system.l2cache.cpu_side        50446                       # Packet count per connected master and slave (bytes)
system.l2bus.pkt_count::total                   60321                       # Packet count per connected master and slave (bytes)
system.l2bus.pkt_size_system.cpu.icache.mem_side::system.l2cache.cpu_side       216064                       # Cumulative packet size per connected master and slave (bytes)
system.l2bus.pkt_size_system.cpu.dcache.mem_side::system.l2cache.cpu_side      1279168                       # Cumulative packet size per connected master and slave (bytes)
system.l2bus.pkt_size::total                  1495232                       # Cumulative packet size per connected master and slave (bytes)
system.l2bus.snoops                             10680                       # Total snoops (count)
system.l2bus.snoopTraffic                       86080                       # Total snoop traffic (bytes)
system.l2bus.snoop_fanout::samples              31213                       # Request fanout histogram
system.l2bus.snoop_fanout::mean              0.014417                       # Request fanout histogram
system.l2bus.snoop_fanout::stdev             0.119204                       # Request fanout histogram
system.l2bus.snoop_fanout::underflows               0      0.00%      0.00% # Request fanout histogram
system.l2bus.snoop_fanout::0                    30763     98.56%     98.56% # Request fanout histogram
system.l2bus.snoop_fanout::1                      450      1.44%    100.00% # Request fanout histogram
system.l2bus.snoop_fanout::2                        0      0.00%    100.00% # Request fanout histogram
system.l2bus.snoop_fanout::overflows                0      0.00%    100.00% # Request fanout histogram
system.l2bus.snoop_fanout::min_value                0                       # Request fanout histogram
system.l2bus.snoop_fanout::max_value                1                       # Request fanout histogram
system.l2bus.snoop_fanout::total                31213                       # Request fanout histogram
system.l2bus.respLayer1.occupancy            20588398                       # Layer occupancy (ticks)
system.l2bus.respLayer1.utilization               1.4                       # Layer utilization (%)
system.l2bus.reqLayer0.occupancy             19634891                       # Layer occupancy (ticks)
system.l2bus.reqLayer0.utilization                1.3                       # Layer utilization (%)
system.l2bus.respLayer0.occupancy             4053999                       # Layer occupancy (ticks)
system.l2bus.respLayer0.utilization               0.3                       # Layer utilization (%)
system.clk_domain.clock                           400                       # Clock period in ticks
system.clk_domain.voltage_domain.voltage            1                       # Voltage in Volts
system.cpu.pwrStateResidencyTicks::ON      1473260400                       # Cumulative time (in ticks) in various power states
system.cpu.icache.pwrStateResidencyTicks::UNDEFINED   1473260400                       # Cumulative time (in ticks) in various power states
system.cpu.icache.demand_hits::.cpu.inst       441141                       # number of demand (read+write) hits
system.cpu.icache.demand_hits::total           441141                       # number of demand (read+write) hits
system.cpu.icache.overall_hits::.cpu.inst       441141                       # number of overall hits
system.cpu.icache.overall_hits::total          441141                       # number of overall hits
system.cpu.icache.demand_misses::.cpu.inst         4083                       # number of demand (read+write) misses
system.cpu.icache.demand_misses::total           4083                       # number of demand (read+write) misses
system.cpu.icache.overall_misses::.cpu.inst         4083                       # number of overall misses
system.cpu.icache.overall_misses::total          4083                       # number of overall misses
system.cpu.icache.demand_miss_latency::.cpu.inst    185502799                       # number of demand (read+write) miss cycles
system.cpu.icache.demand_miss_latency::total    185502799                       # number of demand (read+write) miss cycles
system.cpu.icache.overall_miss_latency::.cpu.inst    185502799                       # number of overall miss cycles
system.cpu.icache.overall_miss_latency::total    185502799                       # number of overall miss cycles
system.cpu.icache.demand_accesses::.cpu.inst       445224                       # number of demand (read+write) accesses
system.cpu.icache.demand_accesses::total       445224                       # number of demand (read+write) accesses
system.cpu.icache.overall_accesses::.cpu.inst       445224                       # number of overall (read+write) accesses
system.cpu.icache.overall_accesses::total       445224                       # number of overall (read+write) accesses
system.cpu.icache.demand_miss_rate::.cpu.inst     0.009171                       # miss rate for demand accesses
system.cpu.icache.demand_miss_rate::total     0.009171                       # miss rate for demand accesses
system.cpu.icache.overall_miss_rate::.cpu.inst     0.009171                       # miss rate for overall accesses
system.cpu.icache.overall_miss_rate::total     0.009171                       # miss rate for overall accesses
system.cpu.icache.demand_avg_miss_latency::.cpu.inst 45432.965711                       # average overall miss latency
system.cpu.icache.demand_avg_miss_latency::total 45432.965711                       # average overall miss latency
system.cpu.icache.overall_avg_miss_latency::.cpu.inst 45432.965711                       # average overall miss latency
system.cpu.icache.overall_avg_miss_latency::total 45432.965711                       # average overall miss latency
system.cpu.icache.blocked_cycles::no_mshrs          184                       # number of cycles access was blocked
system.cpu.icache.blocked_cycles::no_targets            0                       # number of cycles access was blocked
system.cpu.icache.blocked::no_mshrs                 5                       # number of cycles access was blocked
system.cpu.icache.blocked::no_targets               0                       # number of cycles access was blocked
system.cpu.icache.avg_blocked_cycles::no_mshrs    36.800000                       # average number of cycles each access was blocked
system.cpu.icache.avg_blocked_cycles::no_targets          nan                       # average number of cycles each access was blocked
system.cpu.icache.demand_mshr_hits::.cpu.inst          705                       # number of demand (read+write) MSHR hits
system.cpu.icache.demand_mshr_hits::total          705                       # number of demand (read+write) MSHR hits
system.cpu.icache.overall_mshr_hits::.cpu.inst          705                       # number of overall MSHR hits
system.cpu.icache.overall_mshr_hits::total          705                       # number of overall MSHR hits
system.cpu.icache.demand_mshr_misses::.cpu.inst         3378                       # number of demand (read+write) MSHR misses
system.cpu.icache.demand_mshr_misses::total         3378                       # number of demand (read+write) MSHR misses
system.cpu.icache.overall_mshr_misses::.cpu.inst         3378                       # number of overall MSHR misses
system.cpu.icache.overall_mshr_misses::total         3378                       # number of overall MSHR misses
system.cpu.icache.demand_mshr_miss_latency::.cpu.inst    149795599                       # number of demand (read+write) MSHR miss cycles
system.cpu.icache.demand_mshr_miss_latency::total    149795599                       # number of demand (read+write) MSHR miss cycles
system.cpu.icache.overall_mshr_miss_latency::.cpu.inst    149795599                       # number of overall MSHR miss cycles
system.cpu.icache.overall_mshr_miss_latency::total    149795599                       # number of overall MSHR miss cycles
system.cpu.icache.demand_mshr_miss_rate::.cpu.inst     0.007587                       # mshr miss rate for demand accesses
system.cpu.icache.demand_mshr_miss_rate::total     0.007587                       # mshr miss rate for demand accesses
system.cpu.icache.overall_mshr_miss_rate::.cpu.inst     0.007587                       # mshr miss rate for overall accesses
system.cpu.icache.overall_mshr_miss_rate::total     0.007587                       # mshr miss rate for overall accesses
system.cpu.icache.demand_avg_mshr_miss_latency::.cpu.inst 44344.463884                       # average overall mshr miss latency
system.cpu.icache.demand_avg_mshr_miss_latency::total 44344.463884                       # average overall mshr miss latency
system.cpu.icache.overall_avg_mshr_miss_latency::.cpu.inst 44344.463884                       # average overall mshr miss latency
system.cpu.icache.overall_avg_mshr_miss_latency::total 44344.463884                       # average overall mshr miss latency
system.cpu.icache.replacements                   3121                       # number of replacements
system.cpu.icache.ReadReq_hits::.cpu.inst       441141                       # number of ReadReq hits
system.cpu.icache.ReadReq_hits::total          441141                       # number of ReadReq hits
system.cpu.icache.ReadReq_misses::.cpu.inst         4083                       # number of ReadReq misses
system.cpu.icache.ReadReq_misses::total          4083                       # number of ReadReq misses
system.cpu.icache.ReadReq_miss_latency::.cpu.inst    185502799                       # number of ReadReq miss cycles
system.cpu.icache.ReadReq_miss_latency::total    185502799                       # number of ReadReq miss cycles
system.cpu.icache.ReadReq_accesses::.cpu.inst       445224                       # number of ReadReq accesses(hits+misses)
system.cpu.icache.ReadReq_accesses::total       445224                       # number of ReadReq accesses(hits+misses)
system.cpu.icache.ReadReq_miss_rate::.cpu.inst     0.009171                       # miss rate for ReadReq accesses
system.cpu.icache.ReadReq_miss_rate::total     0.009171                       # miss rate for ReadReq accesses
system.cpu.icache.ReadReq_avg_miss_latency::.cpu.inst 45432.965711                       # average ReadReq miss latency
system.cpu.icache.ReadReq_avg_miss_latency::total 45432.965711                       # average ReadReq miss latency
system.cpu.icache.ReadReq_mshr_hits::.cpu.inst          705                       # number of ReadReq MSHR hits
system.cpu.icache.ReadReq_mshr_hits::total          705                       # number of ReadReq MSHR hits
system.cpu.icache.ReadReq_mshr_misses::.cpu.inst         3378                       # number of ReadReq MSHR misses
system.cpu.icache.ReadReq_mshr_misses::total         3378                       # number of ReadReq MSHR misses
system.cpu.icache.ReadReq_mshr_miss_latency::.cpu.inst    149795599                       # number of ReadReq MSHR miss cycles
system.cpu.icache.ReadReq_mshr_miss_latency::total    149795599                       # number of ReadReq MSHR miss cycles
system.cpu.icache.ReadReq_mshr_miss_rate::.cpu.inst     0.007587                       # mshr miss rate for ReadReq accesses
system.cpu.icache.ReadReq_mshr_miss_rate::total     0.007587                       # mshr miss rate for ReadReq accesses
system.cpu.icache.ReadReq_avg_mshr_miss_latency::.cpu.inst 44344.463884                       # average ReadReq mshr miss latency
system.cpu.icache.ReadReq_avg_mshr_miss_latency::total 44344.463884                       # average ReadReq mshr miss latency
system.cpu.icache.prefetcher.pwrStateResidencyTicks::UNDEFINED   1473260400                       # Cumulative time (in ticks) in various power states
system.cpu.icache.tags.pwrStateResidencyTicks::UNDEFINED   1473260400                       # Cumulative time (in ticks) in various power states
system.cpu.icache.tags.tagsinuse           254.114225                       # Cycle average of tags in use
system.cpu.icache.tags.total_refs              336000                       # Total number of references to valid blocks.
system.cpu.icache.tags.sampled_refs              3122                       # Sample count of references to valid blocks.
system.cpu.icache.tags.avg_refs            107.623318                       # Average number of references to valid blocks.
system.cpu.icache.tags.warmup_cycle             66400                       # Cycle when the warmup percentage was hit.
system.cpu.icache.tags.occ_blocks::.cpu.inst   254.114225                       # Average occupied blocks per requestor
system.cpu.icache.tags.occ_percent::.cpu.inst     0.992634                       # Average percentage of cache occupancy
system.cpu.icache.tags.occ_percent::total     0.992634                       # Average percentage of cache occupancy
system.cpu.icache.tags.occ_task_id_blocks::1024          256                       # Occupied blocks per task id
system.cpu.icache.tags.age_task_id_blocks_1024::0          104                       # Occupied blocks per task id
system.cpu.icache.tags.age_task_id_blocks_1024::1            3                       # Occupied blocks per task id
system.cpu.icache.tags.age_task_id_blocks_1024::2          147                       # Occupied blocks per task id
system.cpu.icache.tags.age_task_id_blocks_1024::3            2                       # Occupied blocks per task id
system.cpu.icache.tags.occ_task_id_percent::1024            1                       # Percentage of cache occupancy per task id
system.cpu.icache.tags.tag_accesses            893826                       # Number of tag accesses
system.cpu.icache.tags.data_accesses           893826                       # Number of data accesses
system.cpu.dtb.walker.pwrStateResidencyTicks::UNDEFINED   1473260400                       # Cumulative time (in ticks) in various power states
system.cpu.interrupts.clk_domain.clock           6400                       # Clock period in ticks
system.cpu.itb.walker.pwrStateResidencyTicks::UNDEFINED   1473260400                       # Cumulative time (in ticks) in various power states
system.cpu.dcache.pwrStateResidencyTicks::UNDEFINED   1473260400                       # Cumulative time (in ticks) in various power states
system.cpu.dcache.demand_hits::.cpu.data      1109887                       # number of demand (read+write) hits
system.cpu.dcache.demand_hits::total          1109887                       # number of demand (read+write) hits
system.cpu.dcache.overall_hits::.cpu.data      1109887                       # number of overall hits
system.cpu.dcache.overall_hits::total         1109887                       # number of overall hits
system.cpu.dcache.demand_misses::.cpu.data        34850                       # number of demand (read+write) misses
system.cpu.dcache.demand_misses::total          34850                       # number of demand (read+write) misses
system.cpu.dcache.overall_misses::.cpu.data        34850                       # number of overall misses
system.cpu.dcache.overall_misses::total         34850                       # number of overall misses
system.cpu.dcache.demand_miss_latency::.cpu.data   1693216000                       # number of demand (read+write) miss cycles
system.cpu.dcache.demand_miss_latency::total   1693216000                       # number of demand (read+write) miss cycles
system.cpu.dcache.overall_miss_latency::.cpu.data   1693216000                       # number of overall miss cycles
system.cpu.dcache.overall_miss_latency::total   1693216000                       # number of overall miss cycles
system.cpu.dcache.demand_accesses::.cpu.data      1144737                       # number of demand (read+write) accesses
system.cpu.dcache.demand_accesses::total      1144737                       # number of demand (read+write) accesses
system.cpu.dcache.overall_accesses::.cpu.data      1144737                       # number of overall (read+write) accesses
system.cpu.dcache.overall_accesses::total      1144737                       # number of overall (read+write) accesses
system.cpu.dcache.demand_miss_rate::.cpu.data     0.030444                       # miss rate for demand accesses
system.cpu.dcache.demand_miss_rate::total     0.030444                       # miss rate for demand accesses
system.cpu.dcache.overall_miss_rate::.cpu.data     0.030444                       # miss rate for overall accesses
system.cpu.dcache.overall_miss_rate::total     0.030444                       # miss rate for overall accesses
system.cpu.dcache.demand_avg_miss_latency::.cpu.data 48585.824964                       # average overall miss latency
system.cpu.dcache.demand_avg_miss_latency::total 48585.824964                       # average overall miss latency
system.cpu.dcache.overall_avg_miss_latency::.cpu.data 48585.824964                       # average overall miss latency
system.cpu.dcache.overall_avg_miss_latency::total 48585.824964                       # average overall miss latency
system.cpu.dcache.blocked_cycles::no_mshrs        28352                       # number of cycles access was blocked
system.cpu.dcache.blocked_cycles::no_targets          205                       # number of cycles access was blocked
system.cpu.dcache.blocked::no_mshrs               782                       # number of cycles access was blocked
system.cpu.dcache.blocked::no_targets               2                       # number of cycles access was blocked
system.cpu.dcache.avg_blocked_cycles::no_mshrs    36.255754                       # average number of cycles each access was blocked
system.cpu.dcache.avg_blocked_cycles::no_targets   102.500000                       # average number of cycles each access was blocked
system.cpu.dcache.unused_prefetches              1840                       # number of HardPF blocks evicted w/o reference
system.cpu.dcache.writebacks::.writebacks         2831                       # number of writebacks
system.cpu.dcache.writebacks::total              2831                       # number of writebacks
system.cpu.dcache.demand_mshr_hits::.cpu.data        22178                       # number of demand (read+write) MSHR hits
system.cpu.dcache.demand_mshr_hits::total        22178                       # number of demand (read+write) MSHR hits
system.cpu.dcache.overall_mshr_hits::.cpu.data        22178                       # number of overall MSHR hits
system.cpu.dcache.overall_mshr_hits::total        22178                       # number of overall MSHR hits
system.cpu.dcache.demand_mshr_misses::.cpu.data        12672                       # number of demand (read+write) MSHR misses
system.cpu.dcache.demand_mshr_misses::total        12672                       # number of demand (read+write) MSHR misses
system.cpu.dcache.overall_mshr_misses::.cpu.data        12672                       # number of overall MSHR misses
system.cpu.dcache.overall_mshr_misses::.cpu.dcache.prefetcher         4485                       # number of overall MSHR misses
system.cpu.dcache.overall_mshr_misses::total        17157                       # number of overall MSHR misses
system.cpu.dcache.demand_mshr_miss_latency::.cpu.data    582754800                       # number of demand (read+write) MSHR miss cycles
system.cpu.dcache.demand_mshr_miss_latency::total    582754800                       # number of demand (read+write) MSHR miss cycles
system.cpu.dcache.overall_mshr_miss_latency::.cpu.data    582754800                       # number of overall MSHR miss cycles
system.cpu.dcache.overall_mshr_miss_latency::.cpu.dcache.prefetcher    252155914                       # number of overall MSHR miss cycles
system.cpu.dcache.overall_mshr_miss_latency::total    834910714                       # number of overall MSHR miss cycles
system.cpu.dcache.demand_mshr_miss_rate::.cpu.data     0.011070                       # mshr miss rate for demand accesses
system.cpu.dcache.demand_mshr_miss_rate::total     0.011070                       # mshr miss rate for demand accesses
system.cpu.dcache.overall_mshr_miss_rate::.cpu.data     0.011070                       # mshr miss rate for overall accesses
system.cpu.dcache.overall_mshr_miss_rate::.cpu.dcache.prefetcher          inf                       # mshr miss rate for overall accesses
system.cpu.dcache.overall_mshr_miss_rate::total     0.014988                       # mshr miss rate for overall accesses
system.cpu.dcache.demand_avg_mshr_miss_latency::.cpu.data 45987.594697                       # average overall mshr miss latency
system.cpu.dcache.demand_avg_mshr_miss_latency::total 45987.594697                       # average overall mshr miss latency
system.cpu.dcache.overall_avg_mshr_miss_latency::.cpu.data 45987.594697                       # average overall mshr miss latency
system.cpu.dcache.overall_avg_mshr_miss_latency::.cpu.dcache.prefetcher 56222.054404                       # average overall mshr miss latency
system.cpu.dcache.overall_avg_mshr_miss_latency::total 48662.978026                       # average overall mshr miss latency
system.cpu.dcache.replacements                  16132                       # number of replacements
system.cpu.dcache.ReadReq_hits::.cpu.data       765300                       # number of ReadReq hits
system.cpu.dcache.ReadReq_hits::total          765300                       # number of ReadReq hits
system.cpu.dcache.ReadReq_misses::.cpu.data        32577                       # number of ReadReq misses
system.cpu.dcache.ReadReq_misses::total         32577                       # number of ReadReq misses
system.cpu.dcache.ReadReq_miss_latency::.cpu.data   1579006400                       # number of ReadReq miss cycles
system.cpu.dcache.ReadReq_miss_latency::total   1579006400                       # number of ReadReq miss cycles
system.cpu.dcache.ReadReq_accesses::.cpu.data       797877                       # number of ReadReq accesses(hits+misses)
system.cpu.dcache.ReadReq_accesses::total       797877                       # number of ReadReq accesses(hits+misses)
system.cpu.dcache.ReadReq_miss_rate::.cpu.data     0.040830                       # miss rate for ReadReq accesses
system.cpu.dcache.ReadReq_miss_rate::total     0.040830                       # miss rate for ReadReq accesses
system.cpu.dcache.ReadReq_avg_miss_latency::.cpu.data 48469.975750                       # average ReadReq miss latency
system.cpu.dcache.ReadReq_avg_miss_latency::total 48469.975750                       # average ReadReq miss latency
system.cpu.dcache.ReadReq_mshr_hits::.cpu.data        22145                       # number of ReadReq MSHR hits
system.cpu.dcache.ReadReq_mshr_hits::total        22145                       # number of ReadReq MSHR hits
system.cpu.dcache.ReadReq_mshr_misses::.cpu.data        10432                       # number of ReadReq MSHR misses
system.cpu.dcache.ReadReq_mshr_misses::total        10432                       # number of ReadReq MSHR misses
system.cpu.dcache.ReadReq_mshr_miss_latency::.cpu.data    471468000                       # number of ReadReq MSHR miss cycles
system.cpu.dcache.ReadReq_mshr_miss_latency::total    471468000                       # number of ReadReq MSHR miss cycles
system.cpu.dcache.ReadReq_mshr_miss_rate::.cpu.data     0.013075                       # mshr miss rate for ReadReq accesses
system.cpu.dcache.ReadReq_mshr_miss_rate::total     0.013075                       # mshr miss rate for ReadReq accesses
system.cpu.dcache.ReadReq_avg_mshr_miss_latency::.cpu.data 45194.401840                       # average ReadReq mshr miss latency
system.cpu.dcache.ReadReq_avg_mshr_miss_latency::total 45194.401840                       # average ReadReq mshr miss latency
system.cpu.dcache.WriteReq_hits::.cpu.data       344587                       # number of WriteReq hits
system.cpu.dcache.WriteReq_hits::total         344587                       # number of WriteReq hits
system.cpu.dcache.WriteReq_misses::.cpu.data         2273                       # number of WriteReq misses
system.cpu.dcache.WriteReq_misses::total         2273                       # number of WriteReq misses
system.cpu.dcache.WriteReq_miss_latency::.cpu.data    114209600                       # number of WriteReq miss cycles
system.cpu.dcache.WriteReq_miss_latency::total    114209600                       # number of WriteReq miss cycles
system.cpu.dcache.WriteReq_accesses::.cpu.data       346860                       # number of WriteReq accesses(hits+misses)
system.cpu.dcache.WriteReq_accesses::total       346860                       # number of WriteReq accesses(hits+misses)
system.cpu.dcache.WriteReq_miss_rate::.cpu.data     0.006553                       # miss rate for WriteReq accesses
system.cpu.dcache.WriteReq_miss_rate::total     0.006553                       # miss rate for WriteReq accesses
system.cpu.dcache.WriteReq_avg_miss_latency::.cpu.data 50246.194457                       # average WriteReq miss latency
system.cpu.dcache.WriteReq_avg_miss_latency::total 50246.194457                       # average WriteReq miss latency
system.cpu.dcache.WriteReq_mshr_hits::.cpu.data           33                       # number of WriteReq MSHR hits
system.cpu.dcache.WriteReq_mshr_hits::total           33                       # number of WriteReq MSHR hits
[...]
system.l2cache.demand_mshr_misses::.cpu.data          137                       # number of demand (read+write) MSHR misses
system.l2cache.demand_mshr_misses::.cpu.dcache.prefetcher           36                       # number of demand (read+write) MSHR misses
system.l2cache.demand_mshr_misses::total          427                       # number of demand (read+write) MSHR misses
system.l2cache.overall_mshr_misses::.cpu.inst          254                       # number of overall MSHR misses
system.l2cache.overall_mshr_misses::.cpu.data          137                       # number of overall MSHR misses
system.l2cache.overall_mshr_misses::.cpu.dcache.prefetcher           36                       # number of overall MSHR misses
system.l2cache.overall_mshr_misses::total          427                       # number of overall MSHR misses
system.l2cache.demand_mshr_miss_latency::.cpu.inst     14885200                       # number of demand (read+write) MSHR miss cycles
system.l2cache.demand_mshr_miss_latency::.cpu.data      8006000                       # number of demand (read+write) MSHR miss cycles
system.l2cache.demand_mshr_miss_latency::.cpu.dcache.prefetcher      2107162                       # number of demand (read+write) MSHR miss cycles
system.l2cache.demand_mshr_miss_latency::total     24998362                       # number of demand (read+write) MSHR miss cycles
system.l2cache.overall_mshr_miss_latency::.cpu.inst     14885200                       # number of overall MSHR miss cycles
system.l2cache.overall_mshr_miss_latency::.cpu.data      8006000                       # number of overall MSHR miss cycles
system.l2cache.overall_mshr_miss_latency::.cpu.dcache.prefetcher      2107162                       # number of overall MSHR miss cycles
system.l2cache.overall_mshr_miss_latency::total     24998362                       # number of overall MSHR miss cycles
system.l2cache.demand_mshr_miss_rate::.cpu.inst     0.429780                       # mshr miss rate for demand accesses
system.l2cache.demand_mshr_miss_rate::.cpu.data     0.424149                       # mshr miss rate for demand accesses
system.l2cache.demand_mshr_miss_rate::.cpu.dcache.prefetcher     0.837209                       # mshr miss rate for demand accesses
system.l2cache.demand_mshr_miss_rate::total     0.446186                       # mshr miss rate for demand accesses
system.l2cache.overall_mshr_miss_rate::.cpu.inst     0.429780                       # mshr miss rate for overall accesses
system.l2cache.overall_mshr_miss_rate::.cpu.data     0.424149                       # mshr miss rate for overall accesses
system.l2cache.overall_mshr_miss_rate::.cpu.dcache.prefetcher     0.837209                       # mshr miss rate for overall accesses
system.l2cache.overall_mshr_miss_rate::total     0.446186                       # mshr miss rate for overall accesses
system.l2cache.demand_avg_mshr_miss_latency::.cpu.inst 58603.149606                       # average overall mshr miss latency
system.l2cache.demand_avg_mshr_miss_latency::.cpu.data 58437.956204                       # average overall mshr miss latency
system.l2cache.demand_avg_mshr_miss_latency::.cpu.dcache.prefetcher 58532.277778                       # average overall mshr miss latency
system.l2cache.demand_avg_mshr_miss_latency::total 58544.173302                       # average overall mshr miss latency
system.l2cache.overall_avg_mshr_miss_latency::.cpu.inst 58603.149606                       # average overall mshr miss latency
system.l2cache.overall_avg_mshr_miss_latency::.cpu.data 58437.956204                       # average overall mshr miss latency
system.l2cache.overall_avg_mshr_miss_latency::.cpu.dcache.prefetcher 58532.277778                       # average overall mshr miss latency
system.l2cache.overall_avg_mshr_miss_latency::total 58544.173302                       # average overall mshr miss latency
system.l2cache.replacements                       438                       # number of replacements
system.l2cache.WritebackDirty_hits::.writebacks          155                       # number of WritebackDirty hits
system.l2cache.WritebackDirty_hits::total          155                       # number of WritebackDirty hits
system.l2cache.WritebackDirty_accesses::.writebacks          155                       # number of WritebackDirty accesses(hits+misses)
system.l2cache.WritebackDirty_accesses::total          155                       # number of WritebackDirty accesses(hits+misses)
system.l2cache.CleanEvict_mshr_misses::.writebacks            8                       # number of CleanEvict MSHR misses
system.l2cache.CleanEvict_mshr_misses::total            8                       # number of CleanEvict MSHR misses
system.l2cache.CleanEvict_mshr_miss_rate::.writebacks          inf                       # mshr miss rate for CleanEvict accesses
system.l2cache.CleanEvict_mshr_miss_rate::total          inf                       # mshr miss rate for CleanEvict accesses
system.l2cache.ReadExReq_hits::.cpu.data           48                       # number of ReadExReq hits
system.l2cache.ReadExReq_hits::total               48                       # number of ReadExReq hits
system.l2cache.ReadExReq_misses::.cpu.data           19                       # number of ReadExReq misses
system.l2cache.ReadExReq_misses::total             19                       # number of ReadExReq misses
system.l2cache.ReadExReq_miss_latency::.cpu.data      1284400                       # number of ReadExReq miss cycles
system.l2cache.ReadExReq_miss_latency::total      1284400                       # number of ReadExReq miss cycles
system.l2cache.ReadExReq_accesses::.cpu.data           67                       # number of ReadExReq accesses(hits+misses)
system.l2cache.ReadExReq_accesses::total           67                       # number of ReadExReq accesses(hits+misses)
system.l2cache.ReadExReq_miss_rate::.cpu.data     0.283582                       # miss rate for ReadExReq accesses
system.l2cache.ReadExReq_miss_rate::total     0.283582                       # miss rate for ReadExReq accesses
system.l2cache.ReadExReq_avg_miss_latency::.cpu.data        67600                       # average ReadExReq miss latency
system.l2cache.ReadExReq_avg_miss_latency::total        67600                       # average ReadExReq miss latency
system.l2cache.ReadExReq_mshr_misses::.cpu.data           19                       # number of ReadExReq MSHR misses
system.l2cache.ReadExReq_mshr_misses::total           19                       # number of ReadExReq MSHR misses
system.l2cache.ReadExReq_mshr_miss_latency::.cpu.data      1132400                       # number of ReadExReq MSHR miss cycles
system.l2cache.ReadExReq_mshr_miss_latency::total      1132400                       # number of ReadExReq MSHR miss cycles
system.l2cache.ReadExReq_mshr_miss_rate::.cpu.data     0.283582                       # mshr miss rate for ReadExReq accesses
system.l2cache.ReadExReq_mshr_miss_rate::total     0.283582                       # mshr miss rate for ReadExReq accesses
system.l2cache.ReadExReq_avg_mshr_miss_latency::.cpu.data        59600                       # average ReadExReq mshr miss latency
system.l2cache.ReadExReq_avg_mshr_miss_latency::total        59600                       # average ReadExReq mshr miss latency
system.l2cache.ReadSharedReq_hits::.cpu.inst          337                       # number of ReadSharedReq hits
system.l2cache.ReadSharedReq_hits::.cpu.data          138                       # number of ReadSharedReq hits
system.l2cache.ReadSharedReq_hits::.cpu.dcache.prefetcher            7                       # number of ReadSharedReq hits
system.l2cache.ReadSharedReq_hits::total          482                       # number of ReadSharedReq hits
system.l2cache.ReadSharedReq_misses::.cpu.inst          254                       # number of ReadSharedReq misses
system.l2cache.ReadSharedReq_misses::.cpu.data          118                       # number of ReadSharedReq misses
system.l2cache.ReadSharedReq_misses::.cpu.dcache.prefetcher           36                       # number of ReadSharedReq misses
system.l2cache.ReadSharedReq_misses::total          408                       # number of ReadSharedReq misses
system.l2cache.ReadSharedReq_miss_latency::.cpu.inst     16909200                       # number of ReadSharedReq miss cycles
system.l2cache.ReadSharedReq_miss_latency::.cpu.data      7817600                       # number of ReadSharedReq miss cycles
system.l2cache.ReadSharedReq_miss_latency::.cpu.dcache.prefetcher      2395162                       # number of ReadSharedReq miss cycles
system.l2cache.ReadSharedReq_miss_latency::total     27121962                       # number of ReadSharedReq miss cycles
system.l2cache.ReadSharedReq_accesses::.cpu.inst          591                       # number of ReadSharedReq accesses(hits+misses)
system.l2cache.ReadSharedReq_accesses::.cpu.data          256                       # number of ReadSharedReq accesses(hits+misses)
system.l2cache.ReadSharedReq_accesses::.cpu.dcache.prefetcher           43                       # number of ReadSharedReq accesses(hits+misses)
system.l2cache.ReadSharedReq_accesses::total          890                       # number of ReadSharedReq accesses(hits+misses)
system.l2cache.ReadSharedReq_miss_rate::.cpu.inst     0.429780                       # miss rate for ReadSharedReq accesses
system.l2cache.ReadSharedReq_miss_rate::.cpu.data     0.460938                       # miss rate for ReadSharedReq accesses
system.l2cache.ReadSharedReq_miss_rate::.cpu.dcache.prefetcher     0.837209                       # miss rate for ReadSharedReq accesses
system.l2cache.ReadSharedReq_miss_rate::total     0.458427                       # miss rate for ReadSharedReq accesses
system.l2cache.ReadSharedReq_avg_miss_latency::.cpu.inst 66571.653543                       # average ReadSharedReq miss latency
system.l2cache.ReadSharedReq_avg_miss_latency::.cpu.data 66250.847458                       # average ReadSharedReq miss latency
system.l2cache.ReadSharedReq_avg_miss_latency::.cpu.dcache.prefetcher 66532.277778                       # average ReadSharedReq miss latency
system.l2cache.ReadSharedReq_avg_miss_latency::total 66475.397059                       # average ReadSharedReq miss latency
system.l2cache.ReadSharedReq_mshr_misses::.cpu.inst          254                       # number of ReadSharedReq MSHR misses
system.l2cache.ReadSharedReq_mshr_misses::.cpu.data          118                       # number of ReadSharedReq MSHR misses
system.l2cache.ReadSharedReq_mshr_misses::.cpu.dcache.prefetcher           36                       # number of ReadSharedReq MSHR misses
system.l2cache.ReadSharedReq_mshr_misses::total          408                       # number of ReadSharedReq MSHR misses
system.l2cache.ReadSharedReq_mshr_miss_latency::.cpu.inst     14885200                       # number of ReadSharedReq MSHR miss cycles
system.l2cache.ReadSharedReq_mshr_miss_latency::.cpu.data      6873600                       # number of ReadSharedReq MSHR miss cycles
system.l2cache.ReadSharedReq_mshr_miss_latency::.cpu.dcache.prefetcher      2107162                       # number of ReadSharedReq MSHR miss cycles
system.l2cache.ReadSharedReq_mshr_miss_latency::total     23865962                       # number of ReadSharedReq MSHR miss cycles
system.l2cache.ReadSharedReq_mshr_miss_rate::.cpu.inst     0.429780                       # mshr miss rate for ReadSharedReq accesses
system.l2cache.ReadSharedReq_mshr_miss_rate::.cpu.data     0.460938                       # mshr miss rate for ReadSharedReq accesses
system.l2cache.ReadSharedReq_mshr_miss_rate::.cpu.dcache.prefetcher     0.837209                       # mshr miss rate for ReadSharedReq accesses
system.l2cache.ReadSharedReq_mshr_miss_rate::total     0.458427                       # mshr miss rate for ReadSharedReq accesses
system.l2cache.ReadSharedReq_avg_mshr_miss_latency::.cpu.inst 58603.149606                       # average ReadSharedReq mshr miss latency
system.l2cache.ReadSharedReq_avg_mshr_miss_latency::.cpu.data 58250.847458                       # average ReadSharedReq mshr miss latency
system.l2cache.ReadSharedReq_avg_mshr_miss_latency::.cpu.dcache.prefetcher 58532.277778                       # average ReadSharedReq mshr miss latency
system.l2cache.ReadSharedReq_avg_mshr_miss_latency::total 58495.004902                       # average ReadSharedReq mshr miss latency
system.l2cache.prefetcher.pwrStateResidencyTicks::UNDEFINED    392675600                       # Cumulative time (in ticks) in various power states
system.l2cache.tags.pwrStateResidencyTicks::UNDEFINED    392675600                       # Cumulative time (in ticks) in various power states
system.l2cache.tags.tagsinuse                    4096                       # Cycle average of tags in use
system.l2cache.tags.total_refs                  15126                       # Total number of references to valid blocks.
system.l2cache.tags.sampled_refs                 4534                       # Sample count of references to valid blocks.
system.l2cache.tags.avg_refs                 3.336127                       # Average number of references to valid blocks.
system.l2cache.tags.warmup_cycle                    0                       # Cycle when the warmup percentage was hit.
system.l2cache.tags.occ_blocks::.writebacks    41.058481                       # Average occupied blocks per requestor
system.l2cache.tags.occ_blocks::.cpu.inst  1104.186163                       # Average occupied blocks per requestor
system.l2cache.tags.occ_blocks::.cpu.data  1890.947014                       # Average occupied blocks per requestor
system.l2cache.tags.occ_blocks::.cpu.dcache.prefetcher   919.020100                       # Average occupied blocks per requestor
system.l2cache.tags.occ_blocks::.l2cache.prefetcher   140.788242                       # Average occupied blocks per requestor
system.l2cache.tags.occ_percent::.writebacks     0.010024                       # Average percentage of cache occupancy
system.l2cache.tags.occ_percent::.cpu.inst     0.269577                       # Average percentage of cache occupancy
system.l2cache.tags.occ_percent::.cpu.data     0.461657                       # Average percentage of cache occupancy
system.l2cache.tags.occ_percent::.cpu.dcache.prefetcher     0.224370                       # Average percentage of cache occupancy
system.l2cache.tags.occ_percent::.l2cache.prefetcher     0.034372                       # Average percentage of cache occupancy
system.l2cache.tags.occ_percent::total       1.000000                       # Average percentage of cache occupancy
system.l2cache.tags.occ_task_id_blocks::1022          978                       # Occupied blocks per task id
system.l2cache.tags.occ_task_id_blocks::1024         3118                       # Occupied blocks per task id
system.l2cache.tags.age_task_id_blocks_1022::0           10                       # Occupied blocks per task id
system.l2cache.tags.age_task_id_blocks_1022::1            5                       # Occupied blocks per task id
system.l2cache.tags.age_task_id_blocks_1022::2           25                       # Occupied blocks per task id
system.l2cache.tags.age_task_id_blocks_1022::3          938                       # Occupied blocks per task id
system.l2cache.tags.age_task_id_blocks_1024::0          163                       # Occupied blocks per task id
system.l2cache.tags.age_task_id_blocks_1024::1          110                       # Occupied blocks per task id
system.l2cache.tags.age_task_id_blocks_1024::2          125                       # Occupied blocks per task id
system.l2cache.tags.age_task_id_blocks_1024::3         2720                       # Occupied blocks per task id
system.l2cache.tags.occ_task_id_percent::1022     0.238770                       # Percentage of cache occupancy per task id
system.l2cache.tags.occ_task_id_percent::1024     0.761230                       # Percentage of cache occupancy per task id
system.l2cache.tags.tag_accesses                15742                       # Number of tag accesses
system.l2cache.tags.data_accesses               15742                       # Number of data accesses
system.mem_ctrl.pwrStateResidencyTicks::UNDEFINED    392675600                       # Cumulative time (in ticks) in various power states
system.mem_ctrl.bytes_read::.cpu.inst           16192                       # Number of bytes read from this memory
system.mem_ctrl.bytes_read::.cpu.data            8768                       # Number of bytes read from this memory
system.mem_ctrl.bytes_read::.cpu.dcache.prefetcher         2304                       # Number of bytes read from this memory
system.mem_ctrl.bytes_read::total               27264                       # Number of bytes read from this memory
system.mem_ctrl.bytes_inst_read::.cpu.inst        16192                       # Number of instructions bytes read from this memory
system.mem_ctrl.bytes_inst_read::total          16192                       # Number of instructions bytes read from this memory
system.mem_ctrl.bytes_written::.writebacks         1664                       # Number of bytes written to this memory
system.mem_ctrl.bytes_written::total             1664                       # Number of bytes written to this memory
system.mem_ctrl.num_reads::.cpu.inst              253                       # Number of read requests responded to by this memory
system.mem_ctrl.num_reads::.cpu.data              137                       # Number of read requests responded to by this memory
system.mem_ctrl.num_reads::.cpu.dcache.prefetcher           36                       # Number of read requests responded to by this memory
system.mem_ctrl.num_reads::total                  426                       # Number of read requests responded to by this memory
system.mem_ctrl.num_writes::.writebacks            26                       # Number of write requests responded to by this memory
system.mem_ctrl.num_writes::total                  26                       # Number of write requests responded to by this memory
system.mem_ctrl.bw_read::.cpu.inst           41235055                       # Total read bandwidth from this memory (bytes/s)
system.mem_ctrl.bw_read::.cpu.data           22328864                       # Total read bandwidth from this memory (bytes/s)
system.mem_ctrl.bw_read::.cpu.dcache.prefetcher      5867439                       # Total read bandwidth from this memory (bytes/s)
system.mem_ctrl.bw_read::total               69431358                       # Total read bandwidth from this memory (bytes/s)
system.mem_ctrl.bw_inst_read::.cpu.inst      41235055                       # Instruction read bandwidth from this memory (bytes/s)
system.mem_ctrl.bw_inst_read::total          41235055                       # Instruction read bandwidth from this memory (bytes/s)
system.mem_ctrl.bw_write::.writebacks         4237595                       # Write bandwidth from this memory (bytes/s)
system.mem_ctrl.bw_write::total               4237595                       # Write bandwidth from this memory (bytes/s)
system.mem_ctrl.bw_total::.writebacks         4237595                       # Total bandwidth to/from this memory (bytes/s)
system.mem_ctrl.bw_total::.cpu.inst          41235055                       # Total bandwidth to/from this memory (bytes/s)
system.mem_ctrl.bw_total::.cpu.data          22328864                       # Total bandwidth to/from this memory (bytes/s)
system.mem_ctrl.bw_total::.cpu.dcache.prefetcher      5867439                       # Total bandwidth to/from this memory (bytes/s)
system.mem_ctrl.bw_total::total              73668952                       # Total bandwidth to/from this memory (bytes/s)

---------- End Simulation Statistics   ----------
